Version 4
SHEET 1 2408 680
WIRE 240 -448 112 -448
WIRE 336 -448 304 -448
WIRE 640 -448 336 -448
WIRE 864 -448 640 -448
WIRE 1040 -448 944 -448
WIRE 1184 -448 1040 -448
WIRE 640 -400 640 -448
WIRE 592 -384 576 -384
WIRE 576 -368 576 -384
WIRE 576 -368 560 -368
WIRE 1040 -352 1040 -448
WIRE 1184 -352 1184 -448
WIRE 560 -336 560 -368
WIRE 560 -336 464 -336
WIRE 592 -320 592 -384
WIRE 640 -304 640 -320
WIRE 320 -288 320 -400
WIRE 336 -288 320 -288
WIRE 336 -272 336 -288
WIRE 464 -272 464 -336
WIRE 112 -160 112 -368
WIRE 336 -160 336 -192
WIRE 336 -160 112 -160
WIRE 464 -160 464 -192
WIRE 464 -160 336 -160
WIRE 640 -160 640 -304
WIRE 640 -160 464 -160
WIRE 880 -160 640 -160
WIRE 1040 -160 1040 -288
WIRE 1040 -160 880 -160
WIRE 1184 -160 1184 -272
WIRE 1184 -160 1040 -160
WIRE 256 112 112 112
WIRE 640 112 336 112
WIRE 864 112 640 112
WIRE 1040 112 944 112
WIRE 1184 112 1040 112
WIRE 640 160 640 112
WIRE 1040 208 1040 112
WIRE 1184 208 1184 112
WIRE 528 224 464 224
WIRE 592 224 528 224
WIRE 320 272 320 160
WIRE 336 272 320 272
WIRE 336 288 336 272
WIRE 464 288 464 224
WIRE 112 400 112 192
WIRE 336 400 336 368
WIRE 336 400 112 400
WIRE 464 400 464 368
WIRE 464 400 336 400
WIRE 640 400 640 240
WIRE 640 400 464 400
WIRE 880 400 640 400
WIRE 1040 400 1040 272
WIRE 1040 400 880 400
WIRE 1184 400 1184 288
WIRE 1184 400 1040 400
FLAG 336 272 Vg1
FLAG 880 400 0
FLAG 1040 112 Vo
FLAG 592 176 0
FLAG 272 160 0
FLAG 528 224 Vg2
FLAG 880 -160 0
SYMBOL voltage 112 96 R0
WINDOW 123 0 0 Left 0
WINDOW 39 0 0 Left 0
SYMATTR InstName V1
SYMATTR Value 36
SYMBOL voltage 336 272 R0
WINDOW 3 -127 98 Left 2
WINDOW 123 0 0 Left 0
WINDOW 39 0 0 Left 0
SYMATTR Value PULSE(36 0 0 .1n .1n 4.118u 5u)
SYMATTR InstName V2
SYMBOL ind 848 128 R270
WINDOW 0 32 56 VTop 2
WINDOW 3 5 56 VBottom 2
SYMATTR InstName L1
SYMATTR Value {L}
SYMBOL cap 1024 208 R0
SYMATTR InstName C1
SYMATTR Value {CLOAD}
SYMBOL res 1168 192 R0
SYMATTR InstName R1
SYMATTR Value {RLOAD}
SYMBOL sw 640 144 R0
SYMATTR InstName S1
SYMATTR Value MYSW
SYMBOL sw 240 112 R270
SYMATTR InstName S2
SYMATTR Value MYSW
SYMBOL voltage 464 272 R0
WINDOW 3 -127 98 Left 2
WINDOW 123 0 0 Left 0
WINDOW 39 0 0 Left 0
SYMATTR Value PULSE(0 36 0 .1n .1n 4.118u 5u)
SYMATTR InstName V3
SYMBOL voltage 112 -464 R0
WINDOW 123 0 0 Left 0
WINDOW 39 0 0 Left 0
SYMATTR InstName V4
SYMATTR Value 36
SYMBOL voltage 336 -288 R0
WINDOW 3 -127 98 Left 2
WINDOW 123 0 0 Left 0
WINDOW 39 0 0 Left 0
SYMATTR Value PULSE(0 36 0 .1n .1n 0.882u 5u)
SYMATTR InstName V5
SYMBOL ind 848 -432 R270
WINDOW 0 32 56 VTop 2
WINDOW 3 5 56 VBottom 2
SYMATTR InstName L2
SYMATTR Value {L}
SYMBOL cap 1024 -352 R0
SYMATTR InstName C2
SYMATTR Value {CLOAD}
SYMBOL res 1168 -368 R0
SYMATTR InstName R2
SYMATTR Value {RLOAD}
SYMBOL voltage 464 -288 R0
WINDOW 3 -127 98 Left 2
WINDOW 123 0 0 Left 0
WINDOW 39 0 0 Left 0
SYMATTR Value PULSE(36 0 0 .1n .1n 0.882u 5u)
SYMATTR InstName V6
SYMBOL irf520 240 -400 R270
SYMATTR InstName U2
SYMBOL irf520 592 -400 R0
SYMATTR InstName U1
TEXT 80 504 Left 2 !.tran 0 5m 0
TEXT 1096 608 Left 2 !.model MYSW SW(Ron=.1 Roff=1Meg Vt=.5 Vh=0)
TEXT -368 232 Left 2 !.param CLOAD 10u
TEXT -384 272 Left 2 !.param RLOAD 3
TEXT -384 344 Left 2 !.param L 15u
TEXT -240 512 Left 2 !.include irf520.lib
