Version 4
SHEET 1 26844 1796
WIRE 512 -208 400 -208
WIRE 672 -208 592 -208
WIRE 128 0 128 -32
WIRE 800 48 672 48
WIRE 512 80 512 48
WIRE 672 80 672 48
WIRE 800 96 800 48
WIRE 1616 128 1440 128
WIRE 1808 128 1616 128
WIRE 128 160 128 80
WIRE 1440 176 1440 128
WIRE 1440 176 1408 176
WIRE 752 224 640 224
WIRE 128 288 128 240
WIRE 640 320 640 224
WIRE 672 320 640 320
WIRE 752 336 752 224
WIRE 752 336 736 336
WIRE 800 336 752 336
WIRE 896 336 880 336
WIRE 672 352 448 352
WIRE 896 352 896 336
WIRE 448 368 448 352
WIRE 896 448 896 416
WIRE 448 480 448 448
FLAG 400 -208 0
FLAG 672 -208 V-
FLAG 512 160 0
FLAG 512 48 VDD
FLAG 672 160 0
FLAG 672 48 VCC
FLAG 800 160 0
FLAG 128 -32 Vin
FLAG 1616 128 VREG
FLAG 1248 96 V-
FLAG 1408 144 0
FLAG 1248 224 Vref
FLAG 1248 192 Vin
FLAG 1248 160 VDD
FLAG 1248 128 VCC
FLAG 128 288 0
FLAG 448 480 0
FLAG 704 368 0
FLAG 896 448 0
FLAG 896 336 Vref
FLAG 704 304 VDD
FLAG 1808 208 0
SYMBOL voltage 608 -208 R90
WINDOW 123 0 0 Left 0
WINDOW 39 -17 18 VRight 2
WINDOW 0 -45 18 VRight 2
WINDOW 3 -43 75 VRight 2
SYMATTR SpiceLine Rser=100m
SYMATTR InstName V2
SYMATTR Value -5
SYMBOL voltage 512 64 R0
WINDOW 123 0 0 Left 0
WINDOW 39 24 124 Left 2
SYMATTR SpiceLine Rser=100m
SYMATTR InstName V1
SYMATTR Value 7
SYMBOL voltage 672 64 R0
WINDOW 123 0 0 Left 0
WINDOW 39 0 0 Left 0
SYMATTR InstName V6
SYMATTR Value 12
SYMBOL cap 816 160 R180
WINDOW 0 24 56 Left 2
WINDOW 3 24 8 Left 2
SYMATTR InstName C2
SYMATTR Value 270n
SYMBOL buck 1328 160 R0
SYMATTR InstName X3
SYMBOL voltage 128 -16 R0
WINDOW 123 0 0 Left 0
WINDOW 39 0 0 Left 0
SYMATTR InstName V3
SYMATTR Value 36
SYMBOL voltage 128 144 R0
WINDOW 123 0 0 Left 0
WINDOW 39 0 0 Left 0
SYMATTR InstName V4
SYMATTR Value PULSE(0 -24 13m 10u 10u 1.3m)
SYMBOL voltage 448 352 R0
WINDOW 123 0 0 Left 0
WINDOW 39 24 124 Left 2
SYMATTR SpiceLine Rser=1
SYMATTR InstName V7
SYMATTR Value 1.2
SYMBOL Opamps\\LT1215 704 272 R0
SYMATTR InstName U2
SYMBOL cap 880 352 R0
SYMATTR InstName C3
SYMATTR Value .15µ
SYMATTR SpiceLine IC=0
SYMBOL res 896 320 R90
WINDOW 0 0 56 VBottom 2
WINDOW 3 32 56 VTop 2
SYMATTR InstName R3
SYMATTR Value 1k
SYMBOL res 1792 112 R0
SYMATTR InstName R1
SYMATTR Value 3.7
TEXT 1704 -80 Left 2 !;.step param RLOAD list 3.7 60
TEXT 104 -280 Left 2 ;Support
TEXT 1704 -224 Left 2 ;Simulación
TEXT 1704 -104 Left 2 ;Parametros
TEXT 1712 112 Left 2 ;Carga BUCK
TEXT 1280 400 Left 2 !.options gmin=1e-10\n.options abstol=1e-10\n.options reltol=0.0005\n.options cshunt=1e-15
TEXT 1704 -192 Left 2 !.tran 0 4m 0 startup
TEXT 568 376 Left 2 ;Ref1
RECTANGLE Normal 976 512 96 -304 4
RECTANGLE Normal 2016 288 1696 96 4
