Version 4
SHEET 1 4180 680
WIRE 3344 -1696 3296 -1696
WIRE 3296 -1664 3296 -1696
WIRE 3152 -1632 3152 -1696
WIRE 3152 -1632 3120 -1632
WIRE 3296 -1600 3120 -1600
WIRE 3344 -1568 3344 -1696
WIRE 3344 -1568 3120 -1568
WIRE 3728 -1568 3408 -1568
WIRE 2992 -1552 2960 -1552
WIRE 3408 -1536 3408 -1568
WIRE 3408 -1536 3120 -1536
WIRE 2992 -1520 2960 -1520
WIRE 3168 -1504 3120 -1504
WIRE 3296 -1504 3296 -1600
WIRE 3296 -1504 3232 -1504
WIRE 2992 -1488 2848 -1488
WIRE 3152 -1472 3120 -1472
WIRE 3168 -1408 3168 -1504
WIRE 2480 -1312 2272 -1312
WIRE 2480 -1248 2480 -1312
WIRE 2576 -1248 2560 -1248
WIRE 2272 -1232 2272 -1312
WIRE 2224 -1200 2000 -1200
WIRE 2368 -1200 2304 -1200
WIRE 2400 -1200 2368 -1200
WIRE 2272 -1008 1856 -1008
WIRE 2480 -1008 2272 -1008
WIRE 1856 -992 1856 -1008
WIRE 1728 -960 1680 -960
WIRE 2096 -896 1984 -896
WIRE 2272 -896 2272 -1008
WIRE 1728 -832 1664 -832
WIRE 2000 -832 2000 -1200
WIRE 2000 -832 1984 -832
WIRE 1728 -768 1712 -768
WIRE 2032 -768 1984 -768
WIRE 1712 -752 1712 -768
WIRE 1712 -752 1664 -752
WIRE 2752 -752 2624 -752
WIRE 2848 -752 2816 -752
WIRE 3152 -752 2848 -752
WIRE 3376 -752 3152 -752
WIRE 3552 -752 3456 -752
WIRE 3696 -752 3552 -752
WIRE 1648 -720 1584 -720
WIRE 1648 -704 1648 -720
WIRE 1728 -704 1648 -704
WIRE 2048 -704 1984 -704
WIRE 3152 -704 3152 -752
WIRE 3104 -688 3088 -688
WIRE 3696 -688 3696 -752
WIRE 3088 -672 3088 -688
WIRE 3088 -672 3072 -672
WIRE 2832 -656 2832 -704
WIRE 3552 -656 3552 -752
WIRE 1456 -640 1456 -656
WIRE 1584 -640 1456 -640
WIRE 1648 -640 1584 -640
WIRE 1728 -640 1648 -640
WIRE 2048 -640 1984 -640
WIRE 2832 -640 2832 -656
WIRE 3072 -640 3072 -672
WIRE 3072 -640 3056 -640
WIRE 3104 -624 3104 -688
WIRE 3152 -608 3152 -624
WIRE 1456 -592 1456 -640
WIRE 1728 -576 1616 -576
WIRE 2016 -576 1984 -576
WIRE 2976 -576 2976 -640
WIRE 2832 -544 2832 -576
WIRE 1856 -464 1856 -480
WIRE 2624 -464 2624 -672
WIRE 3152 -464 3152 -608
WIRE 3152 -464 2624 -464
WIRE 3392 -464 3152 -464
WIRE 3552 -464 3552 -592
WIRE 3552 -464 3392 -464
WIRE 3696 -464 3696 -608
WIRE 3696 -464 3552 -464
WIRE 1616 -352 1616 -576
WIRE 1728 -352 1616 -352
WIRE 2048 -352 2048 -640
WIRE 2048 -352 1808 -352
FLAG 3392 -464 0
FLAG 2992 -1616 LO2
FLAG 2992 -1584 HO2
FLAG 2960 -1520 0
FLAG 3296 -1424 0
FLAG 3152 -1472 0
FLAG 3232 -1440 0
FLAG 2960 -1552 0
FLAG 3168 -1328 0
FLAG 2832 -544 HO2
FLAG 2976 -576 LO2
FLAG 3152 -752 VS
FLAG 3696 -752 VO
FLAG 3728 -1568 VS
FLAG 3152 -1696 HIN
FLAG 2368 -1200 HIN
FLAG 2848 -1488 LIN
FLAG 2000 -832 LIN
FLAG 1600 -832 0
FLAG 1648 -896 0
FLAG 1856 -464 0
FLAG 2272 -816 0
FLAG 2096 -816 0
FLAG 1728 -512 0
FLAG 2016 -512 0
FLAG 1456 -736 0
FLAG 1456 -512 VO
FLAG 1680 -960 SYNC
FLAG 2272 -1168 0
FLAG 2576 -1248 0
FLAG 2112 -768 0
FLAG 1584 -784 0
SYMBOL voltage 2624 -768 R0
WINDOW 123 0 0 Left 0
WINDOW 39 0 0 Left 0
SYMATTR InstName V2
SYMATTR Value 36
SYMBOL ind 3360 -736 R270
WINDOW 0 32 56 VTop 2
WINDOW 3 5 56 VBottom 2
SYMATTR InstName L1
SYMATTR Value {L}
SYMBOL cap 3536 -656 R0
SYMATTR InstName C2
SYMATTR Value {CLOAD}
SYMBOL res 3680 -704 R0
SYMATTR InstName R5
SYMATTR Value {RLOAD}
SYMBOL irf520 2752 -704 R270
SYMATTR InstName U1
SYMBOL irf520 3104 -704 R0
SYMATTR InstName U2
SYMBOL voltage 3296 -1520 R0
WINDOW 123 0 0 Left 0
WINDOW 39 0 0 Left 0
SYMATTR InstName V5
SYMATTR Value 15
SYMBOL diode 3312 -1600 R180
WINDOW 0 24 64 Left 2
WINDOW 3 24 0 Left 2
SYMATTR InstName D1
SYMATTR Value 1N4007
SYMBOL cap 3408 -1584 R90
WINDOW 0 0 32 VBottom 2
WINDOW 3 32 32 VTop 2
SYMATTR InstName C9
SYMATTR Value 270n
SYMBOL cap 3248 -1440 R180
WINDOW 0 24 56 Left 2
WINDOW 3 24 8 Left 2
SYMATTR InstName C10
SYMATTR Value 270n
SYMBOL voltage 3168 -1424 R0
WINDOW 123 0 0 Left 0
WINDOW 39 0 0 Left 0
SYMATTR InstName V6
SYMATTR Value 15
SYMBOL res 3072 -656 R90
WINDOW 0 0 56 VBottom 2
WINDOW 3 32 56 VTop 2
SYMATTR InstName R14
SYMATTR Value 1
SYMBOL res 2848 -560 R180
WINDOW 0 36 76 Left 2
WINDOW 3 36 40 Left 2
SYMATTR InstName R15
SYMATTR Value 1
SYMBOL sg3525 1856 -736 R0
SYMATTR InstName U3
SYMBOL res 1648 -848 R0
SYMATTR InstName R10
SYMATTR Value 2
SYMBOL cap 1664 -848 R90
WINDOW 0 0 32 VBottom 2
WINDOW 3 32 32 VTop 2
SYMATTR InstName C3
SYMATTR Value 1.48n
SYMBOL res 1744 -912 R90
WINDOW 0 0 56 VBottom 2
WINDOW 3 32 56 VTop 2
SYMATTR InstName R11
SYMATTR Value 2k
SYMBOL voltage 2272 -912 R0
WINDOW 123 0 0 Left 0
WINDOW 39 0 0 Left 0
SYMATTR InstName V1
SYMATTR Value 15
SYMBOL voltage 2096 -912 R0
WINDOW 123 0 0 Left 0
WINDOW 39 0 0 Left 0
SYMATTR InstName V7
SYMATTR Value 15
SYMBOL cap 2000 -576 R0
SYMATTR InstName C4
SYMATTR Value .1µ
SYMBOL res 1440 -608 R0
SYMATTR InstName R12
SYMATTR Value 10k
SYMBOL res 1440 -752 R0
SYMATTR InstName R16
SYMATTR Value 40.8k
SYMBOL cap 1632 -704 R0
SYMATTR InstName C6
SYMATTR Value 68n
SYMBOL res 1568 -736 R0
SYMATTR InstName R17
SYMATTR Value 470k
SYMBOL res 1824 -368 R90
WINDOW 0 0 56 VBottom 2
WINDOW 3 32 56 VTop 2
SYMATTR InstName R1
SYMATTR Value 8k
SYMBOL NOT 2256 -1200 R0
SYMATTR InstName X1
SYMBOL voltage 2464 -1248 R270
WINDOW 0 32 56 VTop 2
WINDOW 3 -32 56 VBottom 2
WINDOW 123 0 0 Left 0
WINDOW 39 0 0 Left 0
SYMATTR InstName V4
SYMATTR Value 13
SYMBOL res 2128 -784 R90
WINDOW 0 0 56 VBottom 2
WINDOW 3 32 56 VTop 2
SYMATTR InstName R3
SYMATTR Value 10k
SYMBOL IR2110 3056 -1552 R0
SYMATTR InstName U4
SYMBOL cap 1568 -784 R0
SYMATTR InstName C1
SYMATTR Value 10n
TEXT 2640 -304 Left 2 !.tran 0 2m 0 startup
TEXT 2160 -704 Left 2 !.param CLOAD 10u
TEXT 2144 -664 Left 2 !.param RLOAD 3
TEXT 2144 -592 Left 2 !.param L 15u
TEXT 2664 -200 Left 2 !.include sg3525.txt
TEXT 2392 -280 Left 2 !.include irf520.txt
TEXT 2440 -384 Left 2 !.include IR2110.txt
TEXT 1888 -200 Left 2 !.MODEL 1N4007 D  ( IS=76.9p RS=42.0m BV=1.00k IBV=5.00u\n+ CJO=26.5p  M=0.333 N=1.45 TT=4.32u )
TEXT 2752 -384 Left 2 !.options plotwinsize=0
