Version 4
SHEET 1 4676 680
WIRE 464 -1424 256 -1424
WIRE 624 -1424 592 -1424
WIRE 464 -1376 336 -1376
WIRE 928 -1376 592 -1376
WIRE 528 -1344 528 -1360
WIRE -192 -1248 -224 -1248
WIRE 528 -1232 528 -1264
WIRE -224 -1184 -224 -1248
WIRE 928 -1184 928 -1376
WIRE 928 -1184 752 -1184
WIRE -224 -1168 -224 -1184
WIRE -224 -1072 -224 -1088
WIRE 256 -992 256 -1424
WIRE 256 -992 112 -992
WIRE 336 -992 336 -1376
WIRE 624 -992 624 -1424
WIRE 624 -992 336 -992
WIRE 640 -992 624 -992
WIRE 864 -992 640 -992
WIRE 976 -992 944 -992
WIRE 1040 -992 976 -992
WIRE 1184 -992 1184 -1024
WIRE 1184 -992 1040 -992
WIRE 640 -944 640 -992
WIRE 1040 -896 1040 -992
WIRE 1184 -896 1184 -992
WIRE 112 -864 112 -912
WIRE 752 -848 752 -1184
WIRE 752 -848 640 -848
WIRE 112 -704 112 -784
WIRE 640 -704 640 -848
WIRE 640 -704 112 -704
WIRE 880 -704 640 -704
WIRE 976 -704 976 -928
WIRE 976 -704 880 -704
WIRE 1040 -704 1040 -832
WIRE 1040 -704 976 -704
WIRE 1184 -704 1184 -816
WIRE 1184 -704 1040 -704
WIRE 2656 -704 2496 -704
WIRE 2656 -672 2656 -704
WIRE 1168 -656 1072 -656
WIRE 1264 -656 1248 -656
WIRE 1504 -656 1472 -656
WIRE 1616 -656 1584 -656
WIRE 1712 -656 1680 -656
WIRE 1904 -624 1840 -624
WIRE 2048 -624 1984 -624
WIRE 1184 -608 1184 -624
WIRE 2496 -608 2496 -624
WIRE 1616 -592 1616 -608
WIRE 1184 -576 1184 -608
WIRE 1264 -560 1264 -656
WIRE 1264 -560 1216 -560
WIRE 1616 -560 1616 -592
WIRE 1072 -544 1072 -656
WIRE 1152 -544 1072 -544
WIRE 1712 -544 1712 -656
WIRE 1712 -544 1648 -544
WIRE 1840 -544 1840 -624
WIRE 1840 -544 1712 -544
WIRE 1856 -544 1840 -544
WIRE 1936 -544 1920 -544
WIRE 2048 -544 2048 -624
WIRE 2048 -544 2016 -544
WIRE 2496 -544 2048 -544
WIRE 2656 -544 2656 -592
WIRE 2656 -544 2496 -544
WIRE 1472 -528 1472 -656
WIRE 1472 -528 1216 -528
WIRE 1488 -528 1472 -528
WIRE 1584 -528 1488 -528
WIRE 2656 -528 2656 -544
WIRE 1712 -512 1648 -512
WIRE 1712 -464 1712 -512
WIRE 1184 -432 1184 -512
WIRE 1408 -432 1408 -448
WIRE 1408 -416 1408 -432
WIRE 1616 -416 1616 -496
WIRE 1712 -352 1712 -384
WIRE 1408 -304 1408 -336
WIRE 1408 -272 1408 -304
WIRE 1408 -160 1408 -192
FLAG 880 -704 0
FLAG 1184 -1024 VO
FLAG 1712 -352 0
FLAG 1616 -592 VPOS
FLAG 2656 -448 0
FLAG 1408 -304 0
FLAG 1408 -432 VPOS
FLAG 2656 -704 VO
FLAG 1488 -528 Verr
FLAG -192 -1248 ctrl
IOPIN -192 -1248 Out
FLAG -224 -1184 x
FLAG -224 -1072 y
FLAG 1072 -544 y
FLAG 1408 -160 VPOS-
FLAG 1616 -416 VPOS-
FLAG 528 -1232 0
FLAG 1184 -608 VPOS
FLAG 1184 -432 VPOS-
FLAG 1264 -736 0
SYMBOL voltage 112 -1008 R0
WINDOW 123 0 0 Left 0
WINDOW 39 0 0 Left 0
SYMATTR InstName V10
SYMATTR Value 36
SYMBOL ind 848 -976 R270
WINDOW 0 32 56 VTop 2
WINDOW 3 5 56 VBottom 2
SYMATTR InstName L4
SYMATTR Value {L}
SYMATTR SpiceLine Rser=0.05
SYMBOL cap 1024 -896 R0
SYMATTR InstName C6
SYMATTR Value {CLOAD}
SYMATTR SpiceLine Rser=100m
SYMBOL res 1168 -912 R0
SYMATTR InstName R10
SYMATTR Value {RLOAD}
SYMBOL cap 1920 -560 R90
WINDOW 0 0 32 VBottom 2
WINDOW 3 32 32 VTop 2
SYMATTR InstName C2
SYMATTR Value 1n
SYMBOL cap 1680 -672 R90
WINDOW 0 0 32 VBottom 2
WINDOW 3 32 32 VTop 2
SYMATTR InstName C5
SYMATTR Value 1n
SYMBOL res 1600 -672 R90
WINDOW 0 0 56 VBottom 2
WINDOW 3 32 56 VTop 2
SYMATTR InstName R7
SYMATTR Value 100k
SYMBOL res 2032 -560 R90
WINDOW 0 0 56 VBottom 2
WINDOW 3 32 56 VTop 2
SYMATTR InstName R8
SYMATTR Value 10k
SYMBOL res 2000 -640 R90
WINDOW 0 0 56 VBottom 2
WINDOW 3 32 56 VTop 2
SYMATTR InstName R9
SYMATTR Value 100k
SYMBOL res 2672 -432 R180
WINDOW 0 36 76 Left 2
WINDOW 3 36 40 Left 2
SYMATTR InstName R13
SYMATTR Value 10k
SYMBOL res 2672 -576 R180
WINDOW 0 36 76 Left 2
WINDOW 3 36 40 Left 2
SYMATTR InstName R14
SYMATTR Value 42.9k
SYMBOL voltage 1408 -432 R0
WINDOW 123 24 44 Left 2
WINDOW 39 0 0 Left 0
SYMATTR Value2 AC 1
SYMATTR InstName Vg1
SYMATTR Value 7
SYMBOL voltage 1712 -480 R0
WINDOW 123 0 0 Left 0
WINDOW 39 0 0 Left 0
SYMATTR InstName V2
SYMATTR Value 1.2
SYMBOL ccm2 528 -1392 R0
SYMATTR SpiceLine Ron=0.23
SYMATTR SpiceLine2 VD=0 RD=0.23
SYMATTR InstName U1
SYMBOL voltage -224 -1184 R0
WINDOW 0 41 45 Left 2
WINDOW 123 37 65 Left 2
WINDOW 39 0 0 Left 2
SYMATTR InstName Vz1
SYMATTR Value2 AC 1
SYMATTR Value ""
SYMBOL TL081 1616 -528 M0
SYMATTR InstName U2
SYMBOL voltage 1408 -288 R0
WINDOW 123 24 44 Left 2
WINDOW 39 0 0 Left 0
SYMATTR Value2 AC 1
SYMATTR InstName Vg2
SYMATTR Value 5
SYMBOL cap 2480 -608 R0
SYMATTR InstName C1
SYMATTR Value 100p
SYMBOL res 2480 -720 R0
SYMATTR InstName R1
SYMATTR Value 100
SYMBOL cap 960 -992 R0
SYMATTR InstName C3
SYMATTR Value 1n
SYMATTR SpiceLine Rser=5m
SYMBOL bv 528 -1360 R0
SYMATTR InstName B2
SYMATTR Value V=delay(v(ctrl)/5.75, 190ns)
SYMBOL voltage 112 -880 R0
WINDOW 123 0 0 Left 0
WINDOW 39 0 0 Left 0
SYMATTR InstName V1
SYMATTR Value PULSE(0 -24 1m 10u 10u 1m)
SYMBOL TL081 1184 -544 M0
SYMATTR InstName U3
SYMBOL res 1248 -752 R0
SYMATTR InstName R2
SYMATTR Value 1k
SYMBOL res 1264 -672 R90
WINDOW 0 0 56 VBottom 2
WINDOW 3 32 56 VTop 2
SYMATTR InstName R3
SYMATTR Value 5k
TEXT 128 -544 Left 2 !;tran 0 3m 0 startup
TEXT -832 -816 Left 2 !.param CLOAD 100u
TEXT -848 -776 Left 2 !.step param RLOAD list 3.7 61
TEXT -848 -704 Left 2 !.param L 65.3u
TEXT -192 -536 Left 2 !.include irf520.txt
TEXT -160 -392 Left 2 !.include IR2110.txt
TEXT -152 -232 Left 2 !.MODEL 1N4007 D  ( IS=76.9p RS=42.0m BV=1.00k IBV=5.00u\n+ CJO=26.5p  M=0.333 N=1.45 TT=4.32u )
TEXT 640 -464 Left 2 !.options gmin=1e-10\n.options abstol=1e-10\n.options reltol=0.003\n.options cshunt=1e-15
TEXT 1352 -704 Left 2 ;Error amp
TEXT 2456 -704 Left 2 ;f
TEXT 152 -448 Left 2 !.include average.lib
TEXT 136 -504 Left 2 !.ac dec 100 .1 100meg
RECTANGLE Normal 2304 -272 1312 -736 2
RECTANGLE Normal 2816 -352 2416 -720 2
