Version 4
SHEET 1 2408 680
WIRE 1296 -2192 976 -2192
WIRE 1392 -2192 1296 -2192
WIRE 1424 -2192 1392 -2192
WIRE 1616 -2192 1616 -2320
WIRE 1616 -2192 1488 -2192
WIRE 1392 -2176 1392 -2192
WIRE 912 -2144 912 -2192
WIRE 1152 -2144 912 -2144
WIRE 912 -2128 912 -2144
WIRE 1392 -2080 1392 -2096
WIRE 1344 -2016 1280 -2016
WIRE 736 -2000 704 -2000
WIRE 1280 -2000 1280 -2016
WIRE 1280 -2000 736 -2000
WIRE 1392 -1952 1392 -2000
WIRE 704 -1936 704 -2000
WIRE 704 -1936 608 -1936
WIRE -1008 -1904 -1328 -1904
WIRE -896 -1904 -1008 -1904
WIRE 704 -1904 704 -1936
WIRE 1392 -1904 1392 -1952
WIRE 1344 -1840 1280 -1840
WIRE -896 -1824 -896 -1904
WIRE -832 -1824 -896 -1824
WIRE -464 -1824 -512 -1824
WIRE -1328 -1792 -1328 -1904
WIRE -1328 -1792 -1344 -1792
WIRE -1312 -1792 -1328 -1792
WIRE -1056 -1792 -1232 -1792
WIRE -976 -1792 -1056 -1792
WIRE -848 -1792 -976 -1792
WIRE 1040 -1792 864 -1792
WIRE 1184 -1792 1040 -1792
WIRE 1280 -1792 1280 -1840
WIRE 1280 -1792 1184 -1792
WIRE -848 -1760 -848 -1792
WIRE -832 -1760 -848 -1760
WIRE -176 -1760 -512 -1760
WIRE 1616 -1744 1616 -2192
WIRE 1616 -1744 1392 -1744
WIRE -176 -1728 -176 -1760
WIRE 96 -1728 96 -1744
WIRE 96 -1728 -176 -1728
WIRE 1392 -1728 1392 -1744
WIRE 864 -1712 864 -1792
WIRE -496 -1696 -512 -1696
WIRE -1136 -1664 -1328 -1664
WIRE 96 -1664 96 -1728
WIRE 1152 -1648 1152 -2144
WIRE 1264 -1648 1152 -1648
WIRE 1376 -1648 1264 -1648
WIRE 1392 -1648 1376 -1648
WIRE -1136 -1632 -1136 -1664
WIRE -832 -1632 -1136 -1632
WIRE -176 -1632 -176 -1728
WIRE -176 -1632 -512 -1632
WIRE 224 -1632 128 -1632
WIRE 1392 -1632 1392 -1648
WIRE -1376 -1600 -1472 -1600
WIRE 1184 -1584 1184 -1792
WIRE -832 -1568 -848 -1568
WIRE 1392 -1536 1392 -1552
WIRE -1216 -1504 -1216 -1520
WIRE -992 -1504 -1216 -1504
WIRE -832 -1504 -992 -1504
WIRE -496 -1504 -512 -1504
WIRE -1376 -1488 -1376 -1520
WIRE -1328 -1488 -1328 -1664
WIRE -1328 -1488 -1376 -1488
WIRE 1296 -1488 1184 -1584
WIRE -1376 -1472 -1376 -1488
WIRE 1296 -1472 1296 -1488
WIRE 1344 -1472 1296 -1472
WIRE 1360 -1472 1344 -1472
WIRE -1216 -1456 -1216 -1504
WIRE -992 -1440 -992 -1504
WIRE -832 -1440 -848 -1440
WIRE -480 -1440 -512 -1440
WIRE 1392 -1424 1392 -1456
WIRE 608 -1392 608 -1936
WIRE -1568 -1376 -1648 -1376
WIRE -1472 -1376 -1472 -1600
WIRE -976 -1376 -1104 -1376
WIRE -832 -1376 -976 -1376
WIRE -448 -1376 -512 -1376
WIRE 1392 -1360 1392 -1424
WIRE -976 -1344 -976 -1376
WIRE -1104 -1312 -1104 -1376
WIRE -1104 -1312 -1520 -1312
WIRE -176 -1312 -176 -1632
WIRE 1344 -1296 608 -1392
WIRE -448 -1280 -448 -1376
WIRE 1392 -1152 1392 -1200
WIRE 240 -992 112 -992
WIRE 336 -992 304 -992
WIRE 640 -992 336 -992
WIRE 672 -992 640 -992
WIRE 864 -992 672 -992
WIRE 1040 -992 944 -992
WIRE 1184 -992 1040 -992
WIRE 640 -944 640 -992
WIRE 592 -928 576 -928
WIRE 1184 -928 1184 -992
WIRE 320 -912 320 -944
WIRE 576 -912 576 -928
WIRE 576 -912 560 -912
WIRE 1040 -896 1040 -992
WIRE 560 -880 560 -912
WIRE 560 -880 464 -880
WIRE 592 -864 592 -928
WIRE 640 -848 640 -864
WIRE 1184 -816 1184 -848
WIRE 1328 -816 1184 -816
WIRE 1488 -816 1408 -816
WIRE 1584 -816 1488 -816
WIRE 1184 -800 1184 -816
WIRE 112 -704 112 -912
WIRE 640 -704 640 -848
WIRE 640 -704 112 -704
WIRE 880 -704 640 -704
WIRE 1040 -704 1040 -832
WIRE 1040 -704 880 -704
WIRE 1184 -704 1184 -720
WIRE 1184 -704 1040 -704
FLAG -448 -1200 0
FLAG -976 -1280 0
FLAG -1520 -1664 Vsens
FLAG -1216 -1376 0
FLAG 880 -704 0
FLAG 1584 -816 Vsens
FLAG 1488 -752 0
FLAG -832 -1696 0
FLAG -512 -1568 0
FLAG -416 -1696 0
FLAG -176 -1232 0
FLAG -1424 -1792 0
FLAG -976 -1728 0
FLAG 1184 -992 VO
FLAG -1216 -1600 VO
FLAG -464 -1824 0
FLAG -1056 -1792 REF
FLAG -928 -1568 REF
FLAG -1376 -1392 0
FLAG -1648 -1376 REF
FLAG -1008 -1840 0
FLAG 48 -1632 HIN
FLAG 96 -1600 0
FLAG 224 -1632 LIN
FLAG -496 -1504 HIN
FLAG 912 -2048 0
FLAG 1392 -1952 HO
FLAG 1392 -1152 0
FLAG 1392 -1424 LO
FLAG 1344 -2064 0
FLAG 1344 -1888 0
FLAG 1344 -1520 0
FLAG 1344 -1344 0
FLAG 1440 -1648 0
FLAG 1264 -1648 Vcc
FLAG 736 -2000 HIN
FLAG 1616 -1744 Vs
FLAG 1040 -1792 LIN
FLAG 1296 -2192 Vb
FLAG 672 -992 Vs
FLAG 320 -832 HO
FLAG 464 -800 LO
SYMBOL res -432 -1184 R180
WINDOW 0 36 76 Left 2
WINDOW 3 36 40 Left 2
SYMATTR InstName R3
SYMATTR Value 5.6k
SYMBOL cap -992 -1344 R0
SYMATTR InstName C1
SYMATTR Value 0.00087µ
SYMBOL res -1200 -1504 R180
WINDOW 0 36 76 Left 2
WINDOW 3 36 40 Left 2
SYMATTR InstName R7
SYMATTR Value 10k
SYMBOL res -1200 -1360 R180
WINDOW 0 36 76 Left 2
WINDOW 3 36 40 Left 2
SYMATTR InstName R8
SYMATTR Value 40.8k
SYMBOL voltage 112 -1008 R0
WINDOW 123 0 0 Left 0
WINDOW 39 0 0 Left 0
SYMATTR InstName V5
SYMATTR Value 36
SYMBOL ind 848 -976 R270
WINDOW 0 32 56 VTop 2
WINDOW 3 5 56 VBottom 2
SYMATTR InstName L1
SYMATTR Value {L}
SYMBOL cap 1024 -896 R0
SYMATTR InstName C7
SYMATTR Value {CLOAD}
SYMBOL res 1168 -944 R0
SYMATTR InstName R15
SYMATTR Value {RLOAD}
SYMBOL irf520 240 -944 R270
SYMATTR InstName U2
SYMBOL irf520 592 -944 R0
SYMATTR InstName U4
SYMBOL res 1168 -816 R0
SYMATTR InstName R4
SYMATTR Value .1
SYMBOL res 1424 -832 R90
WINDOW 0 0 56 VBottom 2
WINDOW 3 32 56 VTop 2
SYMATTR InstName R10
SYMATTR Value 1k
SYMBOL cap 1472 -816 R0
SYMATTR InstName C3
SYMATTR Value 1n
SYMBOL SG1846 -672 -1616 R0
SYMATTR InstName U3
SYMBOL cap -848 -1456 R90
WINDOW 0 0 32 VBottom 2
WINDOW 3 32 32 VTop 2
SYMATTR InstName C11
SYMATTR Value 0.0015µ
SYMBOL res -896 -1456 R90
WINDOW 0 0 56 VBottom 2
WINDOW 3 32 56 VTop 2
SYMATTR InstName R20
SYMATTR Value 68k
SYMBOL res -400 -1712 R90
WINDOW 0 0 56 VBottom 2
WINDOW 3 32 56 VTop 2
SYMATTR InstName R21
SYMATTR Value 10k
SYMBOL voltage -176 -1328 R0
WINDOW 123 0 0 Left 0
WINDOW 39 0 0 Left 0
SYMATTR InstName V3
SYMATTR Value 15
SYMBOL res -1216 -1808 R90
WINDOW 0 0 56 VBottom 2
WINDOW 3 32 56 VTop 2
SYMATTR InstName R1
SYMATTR Value 400
SYMBOL res -1328 -1808 R90
WINDOW 0 0 56 VBottom 2
WINDOW 3 32 56 VTop 2
SYMATTR InstName R2
SYMATTR Value 3k
SYMBOL cap -992 -1792 R0
SYMATTR InstName C4
SYMATTR Value .1µ
SYMBOL res -832 -1584 R90
WINDOW 0 0 56 VBottom 2
WINDOW 3 32 56 VTop 2
SYMATTR InstName R5
SYMATTR Value 8k
SYMBOL npn -1568 -1312 R270
SYMATTR InstName Q1
SYMATTR Value 2N2222
SYMBOL res -1360 -1504 R180
WINDOW 0 36 76 Left 2
WINDOW 3 36 40 Left 2
SYMATTR InstName R6
SYMATTR Value 990
SYMBOL res -1360 -1376 R180
WINDOW 0 36 76 Left 2
WINDOW 3 36 40 Left 2
SYMATTR InstName R9
SYMATTR Value 10
SYMBOL cap -1024 -1904 R0
SYMATTR InstName C2
SYMATTR Value .1µ
SYMBOL NOT 80 -1632 R0
SYMATTR InstName X1
SYMBOL voltage 912 -2144 R0
WINDOW 123 0 0 Left 0
WINDOW 39 0 0 Left 0
SYMATTR InstName VDRV1
SYMATTR Value 10
SYMBOL diode 912 -2176 R270
WINDOW 0 32 32 VTop 2
WINDOW 3 0 32 VBottom 2
SYMATTR InstName D1
SYMBOL cap 1488 -2208 R90
WINDOW 0 0 32 VBottom 2
WINDOW 3 32 32 VTop 2
SYMATTR InstName C5
SYMATTR Value 220n
SYMBOL sw 1392 -2096 R0
SYMATTR InstName S1
SYMATTR Value MYSW
SYMBOL res 1376 -2192 R0
SYMATTR InstName R11
SYMATTR Value 1
SYMBOL sw 1392 -1920 R0
SYMATTR InstName S2
SYMATTR Value MYSW
SYMBOL res 1376 -1840 R0
SYMATTR InstName R12
SYMATTR Value 1
SYMBOL sw 1392 -1552 R0
SYMATTR InstName S3
SYMATTR Value MYSW
SYMBOL sw 1392 -1376 R0
SYMATTR InstName S4
SYMATTR Value MYSW
SYMBOL res 1376 -1296 R0
SYMATTR InstName R13
SYMATTR Value 1
SYMBOL res 1376 -1648 R0
SYMATTR InstName R14
SYMATTR Value 1
SYMBOL cap 1440 -1664 R90
WINDOW 0 0 32 VBottom 2
WINDOW 3 32 32 VTop 2
SYMATTR InstName C6
SYMATTR Value 220n
SYMBOL res 304 -928 R0
SYMATTR InstName R16
SYMATTR Value 10
SYMBOL res 448 -896 R0
SYMATTR InstName R17
SYMATTR Value 10
TEXT 128 -544 Left 2 !.tran 0 1m .4m .2u startup
TEXT -192 -536 Left 2 !.include irf520.txt
TEXT -296 -1928 Left 2 ;fT(kHz)=           2.2
TEXT -184 -1920 Left 2 ;_____________
TEXT -184 -1888 Left 2 ;RT(kOhm)*CT(uF)
TEXT -352 -944 Left 2 !.param CLOAD 10u
TEXT -368 -904 Left 2 !.param RLOAD 3
TEXT -368 -832 Left 2 !.param L 15u
TEXT 152 -440 Left 2 !.include SG1846.txt
TEXT 616 -440 Left 2 !.model MYSW SW(Ron=.01 Roff=1Meg Vt=5 Vh=0)
