Version 4
SHEET 1 2660 680
WIRE 1360 -1152 1360 -1232
WIRE 1488 -1120 1392 -1120
WIRE 640 -1072 -112 -1072
WIRE 1472 -992 1424 -992
WIRE 1648 -992 1472 -992
WIRE 1744 -976 1744 -1072
WIRE -432 -944 -752 -944
WIRE -336 -944 -432 -944
WIRE -304 -944 -336 -944
WIRE -112 -944 -112 -1072
WIRE -112 -944 -240 -944
WIRE 240 -944 112 -944
WIRE 336 -944 304 -944
WIRE 640 -944 640 -1072
WIRE 640 -944 336 -944
WIRE 864 -944 640 -944
WIRE 1040 -944 944 -944
WIRE 1120 -944 1040 -944
WIRE 1184 -944 1120 -944
WIRE -336 -928 -336 -944
WIRE -816 -896 -816 -944
WIRE -576 -896 -816 -896
WIRE 640 -896 640 -944
WIRE -816 -880 -816 -896
WIRE 320 -880 320 -896
WIRE 592 -880 576 -880
WIRE 576 -864 576 -880
WIRE 576 -864 560 -864
WIRE 1616 -864 1616 -960
WIRE 1040 -848 1040 -944
WIRE 1184 -848 1184 -944
WIRE -336 -832 -336 -848
WIRE 560 -832 560 -864
WIRE 560 -832 544 -832
WIRE 592 -816 592 -880
WIRE 640 -800 640 -816
WIRE 112 -784 112 -864
WIRE -384 -768 -448 -768
WIRE 320 -768 320 -800
WIRE 464 -768 464 -832
WIRE -992 -752 -1024 -752
WIRE -448 -752 -448 -768
WIRE -448 -752 -992 -752
WIRE 1616 -720 1616 -864
WIRE -336 -704 -336 -752
WIRE -1024 -688 -1024 -752
WIRE -1024 -688 -1120 -688
WIRE -1024 -656 -1024 -688
WIRE -336 -656 -336 -704
WIRE 112 -656 112 -704
WIRE 640 -656 640 -800
WIRE 640 -656 112 -656
WIRE 880 -656 640 -656
WIRE 1040 -656 1040 -784
WIRE 1040 -656 880 -656
WIRE 1184 -656 1184 -768
WIRE 1184 -656 1040 -656
WIRE -384 -592 -448 -592
WIRE -688 -544 -864 -544
WIRE -544 -544 -688 -544
WIRE -448 -544 -448 -592
WIRE -448 -544 -544 -544
WIRE 1088 -512 1008 -512
WIRE 1344 -512 1344 -528
WIRE -112 -496 -112 -944
WIRE -112 -496 -336 -496
WIRE 960 -496 960 -512
WIRE 1008 -496 1008 -512
WIRE 1008 -496 960 -496
WIRE 1072 -496 1056 -496
WIRE 1088 -496 1088 -512
WIRE 1168 -496 1088 -496
WIRE 1264 -496 1248 -496
WIRE 1280 -496 1264 -496
WIRE 1312 -496 1280 -496
WIRE -336 -480 -336 -496
WIRE 1424 -480 1424 -992
WIRE 1424 -480 1376 -480
WIRE 1504 -480 1424 -480
WIRE -864 -464 -864 -544
WIRE 1072 -464 1072 -496
WIRE 1168 -464 1072 -464
WIRE 1312 -464 1248 -464
WIRE 960 -448 960 -496
WIRE 1280 -416 1280 -496
WIRE 1312 -416 1280 -416
WIRE -576 -400 -576 -896
WIRE -464 -400 -576 -400
WIRE -352 -400 -464 -400
WIRE -336 -400 -352 -400
WIRE -336 -384 -336 -400
WIRE 1056 -384 1056 -496
WIRE 1312 -352 1312 -416
WIRE 1344 -352 1312 -352
WIRE 1504 -352 1504 -480
WIRE 1504 -352 1424 -352
WIRE -544 -336 -544 -544
WIRE -336 -288 -336 -304
WIRE 1312 -272 1312 -352
WIRE 1328 -272 1312 -272
WIRE 1504 -272 1504 -352
WIRE 1504 -272 1392 -272
WIRE -432 -240 -544 -336
WIRE -432 -224 -432 -240
WIRE -384 -224 -432 -224
WIRE -368 -224 -384 -224
WIRE -336 -176 -336 -208
WIRE -1120 -144 -1120 -688
WIRE -336 -112 -336 -176
WIRE -384 -48 -1120 -144
WIRE -336 96 -336 48
WIRE 1584 96 1456 96
WIRE 1680 96 1648 96
WIRE 1792 96 1680 96
WIRE 1984 96 1792 96
WIRE 2208 96 1984 96
WIRE 2384 96 2288 96
WIRE 2528 96 2384 96
WIRE 256 112 112 112
WIRE 640 112 336 112
WIRE 864 112 640 112
WIRE 1040 112 944 112
WIRE 1184 112 1040 112
WIRE 1984 144 1984 96
WIRE 640 160 640 112
WIRE 1936 160 1920 160
WIRE 1664 176 1664 144
WIRE 1792 176 1792 96
WIRE 1792 176 1744 176
WIRE 1920 176 1920 160
WIRE 1920 176 1904 176
WIRE 2384 192 2384 96
WIRE 2528 192 2528 96
WIRE 1040 208 1040 112
WIRE 1184 208 1184 112
WIRE 1904 208 1904 176
WIRE 1904 208 1808 208
WIRE 528 224 464 224
WIRE 592 224 528 224
WIRE 1936 224 1936 160
WIRE 1984 240 1984 224
WIRE 320 272 320 160
WIRE 336 272 320 272
WIRE 1808 272 1808 208
WIRE 336 288 336 272
WIRE 464 288 464 224
WIRE 1456 384 1456 176
WIRE 1808 384 1808 352
WIRE 1808 384 1456 384
WIRE 1984 384 1984 240
WIRE 1984 384 1808 384
WIRE 2224 384 1984 384
WIRE 2384 384 2384 256
WIRE 2384 384 2224 384
WIRE 2528 384 2528 272
WIRE 2528 384 2384 384
WIRE 112 400 112 192
WIRE 336 400 336 368
WIRE 336 400 112 400
WIRE 464 400 464 368
WIRE 464 400 336 400
WIRE 640 400 640 240
WIRE 640 400 464 400
WIRE 880 400 640 400
WIRE 1040 400 1040 272
WIRE 1040 400 880 400
WIRE 1184 400 1184 288
WIRE 1184 400 1040 400
FLAG 336 272 Vg1
FLAG 880 400 0
FLAG 1040 112 Vo
FLAG 592 176 0
FLAG 272 160 0
FLAG 528 224 Vg2
FLAG 2224 384 0
FLAG 880 -656 0
FLAG 320 -768 HO
FLAG 464 -768 LO
FLAG -816 -800 0
FLAG -336 -704 HO
FLAG -336 96 0
FLAG -336 -176 LO
FLAG -384 -816 0
FLAG -384 -640 0
FLAG -384 -272 0
FLAG -384 -96 0
FLAG -288 -400 0
FLAG -464 -400 Vcc
FLAG -992 -752 HIN
FLAG -112 -496 Vs
FLAG -688 -544 LIN
FLAG -432 -944 Vb
FLAG 1616 -640 0
FLAG 2336 -864 0
FLAG 1312 -1120 HIN
FLAG 1360 -1088 0
FLAG 1488 -1120 LIN
FLAG 1744 -1072 HIN
FLAG 1056 -304 0
FLAG 960 -592 0
FLAG 960 -368 VO
FLAG 1120 -944 VO
FLAG 1264 -576 0
FLAG 1344 -448 0
FLAG 2336 -944 V+
FLAG 1344 -528 V+
FLAG 1360 -1232 V+
FLAG 1472 -992 Verr
FLAG 1616 -864 Vsaw
FLAG 1744 -896 0
SYMBOL voltage 112 96 R0
WINDOW 123 0 0 Left 0
WINDOW 39 0 0 Left 0
SYMATTR InstName V1
SYMATTR Value 36
SYMBOL voltage 336 272 R0
WINDOW 3 -127 98 Left 2
WINDOW 123 0 0 Left 0
WINDOW 39 0 0 Left 0
SYMATTR Value PULSE(36 0 0 .1n .1n 4.118u 5u)
SYMATTR InstName V2
SYMBOL ind 848 128 R270
WINDOW 0 32 56 VTop 2
WINDOW 3 5 56 VBottom 2
SYMATTR InstName L1
SYMATTR Value {L}
SYMBOL cap 1024 208 R0
SYMATTR InstName C1
SYMATTR Value {CLOAD}
SYMBOL res 1168 192 R0
SYMATTR InstName R1
SYMATTR Value {RLOAD}
SYMBOL sw 640 144 R0
SYMATTR InstName S1
SYMATTR Value MYSW
SYMBOL sw 240 112 R270
SYMATTR InstName S2
SYMATTR Value MYSW
SYMBOL voltage 464 272 R0
WINDOW 3 -127 98 Left 2
WINDOW 123 0 0 Left 0
WINDOW 39 0 0 Left 0
SYMATTR Value PULSE(0 36 0 .1n .1n 4.118u 5u)
SYMATTR InstName V3
SYMBOL voltage 1456 80 R0
WINDOW 123 0 0 Left 0
WINDOW 39 0 0 Left 0
SYMATTR InstName V4
SYMATTR Value 36
SYMBOL voltage 1648 176 R270
WINDOW 3 -127 98 Left 2
WINDOW 123 0 0 Left 0
WINDOW 39 0 0 Left 0
SYMATTR Value PULSE(0 6 5n .1n .1n 0.872u 5u)
SYMATTR InstName V5
SYMBOL ind 2192 112 R270
WINDOW 0 32 56 VTop 2
WINDOW 3 5 56 VBottom 2
SYMATTR InstName L2
SYMATTR Value {L}
SYMBOL cap 2368 192 R0
SYMATTR InstName C2
SYMATTR Value {CLOAD}
SYMBOL res 2512 176 R0
SYMATTR InstName R2
SYMATTR Value {RLOAD}
SYMBOL voltage 1808 256 R0
WINDOW 3 -127 98 Left 2
WINDOW 123 0 0 Left 0
WINDOW 39 0 0 Left 0
SYMATTR Value PULSE(6 0 0 .1n .1n 0.882u 5u)
SYMATTR InstName V6
SYMBOL irf520 1584 144 R270
SYMATTR InstName U2
SYMBOL irf520 1936 144 R0
SYMATTR InstName U1
SYMBOL voltage 112 -960 R0
WINDOW 123 0 0 Left 0
WINDOW 39 0 0 Left 0
SYMATTR InstName V7
SYMATTR Value PULSE(0 36 .3m 1n 1n 1)
SYMBOL ind 848 -928 R270
WINDOW 0 32 56 VTop 2
WINDOW 3 5 56 VBottom 2
SYMATTR InstName L3
SYMATTR Value {L}
SYMBOL cap 1024 -848 R0
SYMATTR InstName C3
SYMATTR Value {CLOAD}
SYMBOL res 1168 -864 R0
SYMATTR InstName R3
SYMATTR Value {RLOAD}
SYMBOL irf520 240 -896 R270
SYMATTR InstName U4
SYMBOL irf520 592 -896 R0
SYMATTR InstName U5
SYMBOL voltage -816 -896 R0
WINDOW 123 0 0 Left 0
WINDOW 39 0 0 Left 0
SYMATTR InstName VDRV
SYMATTR Value 6
SYMBOL diode -816 -928 R270
WINDOW 0 32 32 VTop 2
WINDOW 3 0 32 VBottom 2
SYMATTR InstName D1
SYMBOL cap -240 -960 R90
WINDOW 0 0 32 VBottom 2
WINDOW 3 32 32 VTop 2
SYMATTR InstName C4
SYMATTR Value 220n
SYMBOL sw -336 -848 R0
SYMATTR InstName S3
SYMATTR Value MYSW
SYMBOL res -352 -944 R0
SYMATTR InstName R4
SYMATTR Value 1
SYMBOL sw -336 -672 R0
SYMATTR InstName S4
SYMATTR Value MYSW
SYMBOL res -352 -592 R0
SYMATTR InstName R5
SYMATTR Value 1
SYMBOL sw -336 -304 R0
SYMATTR InstName S5
SYMATTR Value MYSW
SYMBOL sw -336 -128 R0
SYMATTR InstName S6
SYMATTR Value MYSW
SYMBOL res -352 -48 R0
SYMATTR InstName R6
SYMATTR Value 1
SYMBOL res -352 -400 R0
SYMATTR InstName R7
SYMATTR Value 1
SYMBOL cap -288 -416 R90
WINDOW 0 0 32 VBottom 2
WINDOW 3 32 32 VTop 2
SYMATTR InstName C5
SYMATTR Value 220n
SYMBOL res 560 -848 R90
WINDOW 0 0 56 VBottom 2
WINDOW 3 32 56 VTop 2
SYMATTR InstName R8
SYMATTR Value 1
SYMBOL res 336 -784 R180
WINDOW 0 36 76 Left 2
WINDOW 3 36 40 Left 2
SYMATTR InstName R9
SYMATTR Value 1
SYMBOL voltage 1616 -736 R0
WINDOW 123 0 0 Left 0
WINDOW 39 0 0 Left 0
SYMATTR InstName V10
SYMATTR Value PULSE(0 10 0 5u 0 0 5u)
SYMBOL voltage 2336 -960 R0
WINDOW 123 0 0 Left 0
WINDOW 39 0 0 Left 0
SYMATTR InstName V11
SYMATTR Value 10
SYMBOL NOT 1344 -1120 R0
SYMATTR InstName X1
SYMBOL res 1264 -512 R90
WINDOW 0 0 56 VBottom 2
WINDOW 3 32 56 VTop 2
SYMATTR InstName R12
SYMATTR Value 100k
SYMBOL res 1264 -480 R90
WINDOW 0 0 56 VBottom 2
WINDOW 3 32 56 VTop 2
SYMATTR InstName R13
SYMATTR Value 100k
SYMBOL voltage 1056 -400 R0
WINDOW 123 0 0 Left 0
WINDOW 39 0 0 Left 0
SYMATTR InstName V12
SYMATTR Value 5.1
SYMBOL res 944 -464 R0
SYMATTR InstName R14
SYMATTR Value 10k
SYMBOL res 944 -608 R0
SYMATTR InstName R15
SYMATTR Value 40.8k
SYMBOL res 1440 -368 R90
WINDOW 0 0 56 VBottom 2
WINDOW 3 32 56 VTop 2
SYMATTR InstName 1meg
SYMATTR Value 1Meg
SYMBOL cap 1392 -288 R90
WINDOW 0 0 32 VBottom 2
WINDOW 3 32 32 VTop 2
SYMATTR InstName C7
SYMATTR Value 10n
SYMBOL res 1248 -592 R0
SYMATTR InstName R17
SYMATTR Value 1Meg
SYMBOL voltage 112 -800 R0
WINDOW 123 0 0 Left 0
WINDOW 39 0 0 Left 0
SYMATTR InstName V9
SYMATTR Value PULSE(0 -24 .7m 1n 1n 1)
SYMBOL OpAmps\\OP07 1344 -544 R0
SYMATTR InstName U3
SYMBOL bv 1744 -992 R0
SYMATTR InstName B1
SYMATTR Value V{if(V(Verr)>V(Vsaw),10,0)}
TEXT 80 504 Left 2 !.tran 0 2m .3m startup
TEXT 1096 608 Left 2 !.model MYSW SW(Ron=.01 Roff=1Meg Vt=.5 Vh=0)
TEXT -368 232 Left 2 !.param CLOAD 10u
TEXT -384 272 Left 2 !.param RLOAD 3
TEXT -384 344 Left 2 !.param L 15u
TEXT -240 512 Left 2 !.include irf520.txt
TEXT -208 656 Left 2 !.include IR2110.txt
TEXT -1568 -808 Left 2 ;En el driver posta, HIN seria una tension referenciada a Vs
