Version 4
SHEET 1 2408 680
WIRE 240 -288 112 -288
WIRE 640 -288 304 -288
WIRE 864 -288 640 -288
WIRE 1040 -288 944 -288
WIRE 1184 -288 1040 -288
WIRE 240 -272 240 -288
WIRE 304 -272 304 -288
WIRE 640 -240 640 -288
WIRE 576 -208 560 -208
WIRE 1040 -192 1040 -288
WIRE 1184 -192 1184 -288
WIRE 272 -176 272 -208
WIRE 320 -176 272 -176
WIRE 560 -176 560 -208
WIRE 560 -176 464 -176
WIRE 672 -176 640 -176
WIRE 672 -160 672 -176
WIRE 672 -160 640 -160
WIRE 320 -128 320 -176
WIRE 336 -128 320 -128
WIRE 336 -112 336 -128
WIRE 464 -112 464 -176
WIRE 112 0 112 -208
WIRE 336 0 336 -32
WIRE 336 0 112 0
WIRE 464 0 464 -32
WIRE 464 0 336 0
WIRE 640 0 640 -160
WIRE 640 0 464 0
WIRE 880 0 640 0
WIRE 1040 0 1040 -128
WIRE 1040 0 880 0
WIRE 1184 0 1184 -112
WIRE 1184 0 1040 0
WIRE 256 112 112 112
WIRE 640 112 336 112
WIRE 864 112 640 112
WIRE 1040 112 944 112
WIRE 1184 112 1040 112
WIRE 640 160 640 112
WIRE 1040 208 1040 112
WIRE 1184 208 1184 112
WIRE 528 224 464 224
WIRE 592 224 528 224
WIRE 320 272 320 160
WIRE 336 272 320 272
WIRE 336 288 336 272
WIRE 464 288 464 224
WIRE 112 400 112 192
WIRE 336 400 336 368
WIRE 336 400 112 400
WIRE 464 400 464 368
WIRE 464 400 336 400
WIRE 640 400 640 240
WIRE 640 400 464 400
WIRE 880 400 640 400
WIRE 1040 400 1040 272
WIRE 1040 400 880 400
WIRE 1184 400 1184 288
WIRE 1184 400 1040 400
FLAG 336 272 Vg1
FLAG 880 400 0
FLAG 1040 112 Vo
FLAG 592 176 0
FLAG 272 160 0
FLAG 528 224 Vg2
FLAG 880 0 0
SYMBOL voltage 112 96 R0
WINDOW 123 0 0 Left 0
WINDOW 39 0 0 Left 0
SYMATTR InstName V1
SYMATTR Value 36
SYMBOL voltage 336 272 R0
WINDOW 3 -127 98 Left 2
WINDOW 123 0 0 Left 0
WINDOW 39 0 0 Left 0
SYMATTR Value PULSE(36 0 0 .1n .1n 4.118u 5u)
SYMATTR InstName V2
SYMBOL ind 848 128 R270
WINDOW 0 32 56 VTop 2
WINDOW 3 5 56 VBottom 2
SYMATTR InstName L1
SYMATTR Value {L}
SYMBOL cap 1024 208 R0
SYMATTR InstName C1
SYMATTR Value {CLOAD}
SYMBOL res 1168 192 R0
SYMATTR InstName R1
SYMATTR Value {RLOAD}
SYMBOL sw 640 144 R0
SYMATTR InstName S1
SYMATTR Value MYSW
SYMBOL sw 240 112 R270
SYMATTR InstName S2
SYMATTR Value MYSW
SYMBOL voltage 464 272 R0
WINDOW 3 -127 98 Left 2
WINDOW 123 0 0 Left 0
WINDOW 39 0 0 Left 0
SYMATTR Value PULSE(0 36 0 .1n .1n 4.118u 5u)
SYMATTR InstName V3
SYMBOL voltage 112 -304 R0
WINDOW 123 0 0 Left 0
WINDOW 39 0 0 Left 0
SYMATTR InstName V4
SYMATTR Value 36
SYMBOL voltage 336 -128 R0
WINDOW 3 -127 98 Left 2
WINDOW 123 0 0 Left 0
WINDOW 39 0 0 Left 0
SYMATTR Value PULSE(36 0 0 .1n .1n 0.882u 5u)
SYMATTR InstName V5
SYMBOL ind 848 -272 R270
WINDOW 0 32 56 VTop 2
WINDOW 3 5 56 VBottom 2
SYMATTR InstName L2
SYMATTR Value {L}
SYMBOL cap 1024 -192 R0
SYMATTR InstName C2
SYMATTR Value {CLOAD}
SYMBOL res 1168 -208 R0
SYMATTR InstName R2
SYMATTR Value {RLOAD}
SYMBOL voltage 464 -128 R0
WINDOW 3 -127 98 Left 2
WINDOW 123 0 0 Left 0
WINDOW 39 0 0 Left 0
SYMATTR Value PULSE(0 36 0 .1n .1n 0.882u 5u)
SYMATTR InstName V6
SYMBOL AutoGenerated\\irf9520 272 -240 R270
SYMATTR InstName U1
SYMBOL AutoGenerated\\irf9520 608 -208 R0
SYMATTR InstName U2
TEXT 78 506 Left 2 !.tran 0 50m 0
TEXT 1096 608 Left 2 !.model MYSW SW(Ron=.1 Roff=1Meg Vt=.5 Vh=0)
TEXT -368 232 Left 2 !.param CLOAD 10u
TEXT -384 272 Left 2 !.param RLOAD 10
TEXT -384 344 Left 2 !.param L 150u
