Version 4
SHEET 1 2408 680
WIRE -704 -1344 -1152 -1344
WIRE -1152 -1328 -1152 -1344
WIRE -544 -1248 -592 -1248
WIRE -592 -1216 -592 -1248
WIRE -704 -1184 -704 -1344
WIRE -704 -1184 -768 -1184
WIRE -592 -1152 -768 -1152
WIRE -544 -1120 -544 -1248
WIRE -544 -1120 -768 -1120
WIRE -896 -1104 -928 -1104
WIRE -480 -1088 -480 -1120
WIRE -480 -1088 -768 -1088
WIRE 640 -1088 -480 -1088
WIRE -896 -1072 -928 -1072
WIRE -720 -1056 -768 -1056
WIRE -592 -1056 -592 -1152
WIRE -592 -1056 -656 -1056
WIRE -896 -1040 -992 -1040
WIRE -736 -1024 -768 -1024
WIRE 240 -992 112 -992
WIRE 336 -992 304 -992
WIRE 640 -992 640 -1088
WIRE 640 -992 336 -992
WIRE 864 -992 640 -992
WIRE 1040 -992 944 -992
WIRE 1184 -992 1184 -1184
WIRE 1184 -992 1040 -992
WIRE -720 -960 -720 -1056
WIRE 640 -944 640 -992
WIRE 320 -928 320 -944
WIRE 592 -928 576 -928
WIRE 576 -912 576 -928
WIRE 576 -912 560 -912
WIRE 1040 -896 1040 -992
WIRE 1184 -896 1184 -992
WIRE 560 -880 560 -912
WIRE 560 -880 544 -880
WIRE 592 -864 592 -928
WIRE 640 -848 640 -864
WIRE 320 -816 320 -848
WIRE 464 -816 464 -880
WIRE 112 -704 112 -912
WIRE 640 -704 640 -848
WIRE 640 -704 112 -704
WIRE 880 -704 640 -704
WIRE 1040 -704 1040 -832
WIRE 1040 -704 880 -704
WIRE 1184 -704 1184 -816
WIRE 1184 -704 1040 -704
FLAG 880 -704 0
FLAG 320 -816 HO2
FLAG 464 -816 LO2
FLAG -896 -1168 LO2
FLAG -896 -1136 HO2
FLAG -928 -1072 0
FLAG -992 -960 0
FLAG -592 -976 0
FLAG -1152 -1248 0
FLAG -736 -1024 0
FLAG -656 -992 0
FLAG -928 -1104 0
FLAG -720 -880 0
SYMBOL voltage 112 -1008 R0
WINDOW 123 0 0 Left 0
WINDOW 39 0 0 Left 0
SYMATTR InstName V10
SYMATTR Value 36
SYMBOL ind 848 -976 R270
WINDOW 0 32 56 VTop 2
WINDOW 3 5 56 VBottom 2
SYMATTR InstName L4
SYMATTR Value {L}
SYMBOL cap 1024 -896 R0
SYMATTR InstName C6
SYMATTR Value {CLOAD}
SYMBOL res 1168 -912 R0
SYMATTR InstName R10
SYMATTR Value {RLOAD}
SYMBOL irf520 240 -944 R270
SYMATTR InstName U3
SYMBOL irf520 592 -944 R0
SYMATTR InstName U6
SYMBOL res 560 -896 R90
WINDOW 0 0 56 VBottom 2
WINDOW 3 32 56 VTop 2
SYMATTR InstName R11
SYMATTR Value 1
SYMBOL res 336 -832 R180
WINDOW 0 36 76 Left 2
WINDOW 3 36 40 Left 2
SYMATTR InstName R12
SYMATTR Value 1
SYMBOL voltage -1152 -1344 R0
WINDOW 3 -127 98 Left 2
WINDOW 123 0 0 Left 0
WINDOW 39 0 0 Left 0
SYMATTR Value PULSE(0 6 5n .1n .1n 0.872u 5u)
SYMATTR InstName V11
SYMBOL voltage -992 -1056 R0
WINDOW 3 -127 98 Left 2
WINDOW 123 0 0 Left 0
WINDOW 39 0 0 Left 0
SYMATTR Value PULSE(6 0 0 .1n .1n 0.882u 5u)
SYMATTR InstName V12
SYMBOL voltage -592 -1072 R0
WINDOW 123 0 0 Left 0
WINDOW 39 0 0 Left 0
SYMATTR InstName V13
SYMATTR Value 15
SYMBOL diode -576 -1152 R180
WINDOW 0 24 64 Left 2
WINDOW 3 24 0 Left 2
SYMATTR InstName D2
SYMATTR Value 1N4007
SYMBOL cap -480 -1136 R90
WINDOW 0 0 32 VBottom 2
WINDOW 3 32 32 VTop 2
SYMATTR InstName C3
SYMATTR Value 270n
SYMBOL cap -640 -992 R180
WINDOW 0 24 56 Left 2
WINDOW 3 24 8 Left 2
SYMATTR InstName C4
SYMATTR Value 270n
SYMBOL voltage -720 -976 R0
WINDOW 123 0 0 Left 0
WINDOW 39 0 0 Left 0
SYMATTR InstName V1
SYMATTR Value 6
SYMBOL IR2110 -832 -1104 R0
SYMATTR InstName U1
TEXT 128 -544 Left 2 !.tran 0 5m 0 startup
TEXT -832 -816 Left 2 !.param CLOAD 10u
TEXT -848 -776 Left 2 !.param RLOAD 3
TEXT -848 -704 Left 2 !.param L 15u
TEXT -192 -536 Left 2 !.include irf520.txt
TEXT -160 -392 Left 2 !.include IR2110.txt
TEXT -152 -232 Left 2 !.MODEL 1N4007 D  ( IS=76.9p RS=42.0m BV=1.00k IBV=5.00u\n+ CJO=26.5p  M=0.333 N=1.45 TT=4.32u )
