Version 4
SHEET 1 4676 680
WIRE 4336 -1264 4288 -1264
WIRE 4432 -1264 4400 -1264
WIRE -544 -1248 -592 -1248
WIRE 1520 -1248 1520 -1328
WIRE -592 -1216 -592 -1248
WIRE 1648 -1216 1552 -1216
WIRE 4288 -1200 4288 -1264
WIRE 4304 -1200 4288 -1200
WIRE 4320 -1200 4304 -1200
WIRE 4432 -1200 4432 -1264
WIRE 4432 -1200 4400 -1200
WIRE -704 -1184 -704 -1344
WIRE -704 -1184 -768 -1184
WIRE 3312 -1184 2944 -1184
WIRE 3360 -1184 3360 -1200
WIRE -592 -1152 -768 -1152
WIRE 2320 -1136 2272 -1136
WIRE -544 -1120 -544 -1248
WIRE -544 -1120 -768 -1120
WIRE 2416 -1120 2384 -1120
WIRE -896 -1104 -928 -1104
WIRE 2320 -1104 2272 -1104
WIRE 3360 -1104 3280 -1104
WIRE -480 -1088 -480 -1120
WIRE -480 -1088 -768 -1088
WIRE 640 -1088 -480 -1088
WIRE 4128 -1088 3872 -1088
WIRE 4304 -1088 4304 -1200
WIRE 4304 -1088 4208 -1088
WIRE 4320 -1088 4304 -1088
WIRE -896 -1072 -928 -1072
WIRE 2944 -1072 2944 -1184
WIRE 2992 -1072 2944 -1072
WIRE 3280 -1072 3280 -1104
WIRE 3280 -1072 3216 -1072
WIRE 3728 -1072 3696 -1072
WIRE 3808 -1072 3728 -1072
WIRE 4432 -1072 4432 -1200
WIRE 4432 -1072 4384 -1072
WIRE 4480 -1072 4432 -1072
WIRE -720 -1056 -768 -1056
WIRE -592 -1056 -592 -1152
WIRE -592 -1056 -656 -1056
WIRE 4320 -1056 4288 -1056
WIRE -896 -1040 -992 -1040
WIRE -736 -1024 -768 -1024
WIRE 1184 -1024 1184 -1184
WIRE 2992 -1008 2912 -1008
WIRE 3312 -1008 3312 -1184
WIRE 3312 -1008 3216 -1008
WIRE 3360 -1008 3360 -1024
WIRE 3360 -1008 3312 -1008
WIRE 3728 -1008 3728 -1072
WIRE 4128 -1008 4064 -1008
WIRE 4288 -1008 4288 -1056
WIRE 4288 -1008 4208 -1008
WIRE 240 -992 112 -992
WIRE 336 -992 304 -992
WIRE 640 -992 640 -1088
WIRE 640 -992 336 -992
WIRE 864 -992 640 -992
WIRE 1040 -992 944 -992
WIRE 1184 -992 1184 -1024
WIRE 1184 -992 1040 -992
WIRE -720 -960 -720 -1056
WIRE 640 -944 640 -992
WIRE 320 -928 320 -944
WIRE 592 -928 576 -928
WIRE 3312 -928 3312 -1008
WIRE 576 -912 576 -928
WIRE 576 -912 560 -912
WIRE 1040 -896 1040 -992
WIRE 1184 -896 1184 -992
WIRE 560 -880 560 -912
WIRE 560 -880 544 -880
WIRE 592 -864 592 -928
WIRE 640 -848 640 -864
WIRE 3312 -848 3312 -864
WIRE 320 -816 320 -848
WIRE 464 -816 464 -880
WIRE 112 -704 112 -912
WIRE 640 -704 640 -848
WIRE 640 -704 112 -704
WIRE 880 -704 640 -704
WIRE 1040 -704 1040 -832
WIRE 1040 -704 880 -704
WIRE 1184 -704 1184 -816
WIRE 1184 -704 1040 -704
WIRE 2784 -480 2688 -480
WIRE 2128 -464 2096 -464
WIRE 2240 -464 2208 -464
WIRE 2336 -464 2304 -464
WIRE 2464 -432 2400 -432
WIRE 2608 -432 2544 -432
WIRE 2240 -400 2240 -416
WIRE 2240 -368 2240 -400
WIRE 2096 -352 2096 -464
WIRE 2336 -352 2336 -464
WIRE 2336 -352 2272 -352
WIRE 2400 -352 2400 -432
WIRE 2400 -352 2336 -352
WIRE 2416 -352 2400 -352
WIRE 2496 -352 2480 -352
WIRE 2608 -352 2608 -432
WIRE 2608 -352 2576 -352
WIRE 2784 -352 2784 -400
WIRE 2784 -352 2608 -352
WIRE 2096 -336 2096 -352
WIRE 2208 -336 2096 -336
WIRE 2784 -336 2784 -352
WIRE 2336 -320 2272 -320
WIRE 2336 -272 2336 -320
WIRE 2032 -240 2032 -256
WIRE 2032 -224 2032 -240
WIRE 2240 -224 2240 -304
WIRE 2336 -160 2336 -192
WIRE 2032 -112 2032 -144
FLAG 880 -704 0
FLAG 320 -816 HO2
FLAG 464 -816 LO2
FLAG -896 -1168 LO2
FLAG -896 -1136 HO2
FLAG -928 -1072 0
FLAG -592 -976 0
FLAG -736 -1024 0
FLAG -656 -992 0
FLAG -928 -1104 0
FLAG -720 -880 0
FLAG 1472 -1216 HIN
FLAG 1520 -1184 0
FLAG 1648 -1216 LIN
FLAG 2416 -1120 HIN
FLAG 1520 -1328 V+
FLAG -704 -1344 HIN
FLAG -992 -1040 LIN
FLAG -592 -1056 V+
FLAG 1184 -1024 VO
FLAG 2240 -224 0
FLAG 2336 -160 0
FLAG 2240 -400 VPOS
FLAG 2784 -256 0
FLAG 2032 -112 0
FLAG 2032 -240 VPOS
FLAG 2688 -480 VO
FLAG 2096 -352 Verr
FLAG 2352 -1088 0
FLAG 2352 -1152 VPOS
FLAG 2272 -1136 Vsaw
FLAG 2272 -1104 Verr
FLAG 2992 -1136 0
FLAG 3280 -944 0
FLAG 3312 -848 0
FLAG 2992 -944 VPOS
FLAG 3360 -1200 VPOS
FLAG 3216 -1136 VPOS
FLAG 2912 -1008 Vcua
FLAG 4352 -1104 VPOS
FLAG 4352 -1040 0
FLAG 4480 -1072 Vsaw
FLAG 3840 -1056 0
FLAG 3840 -1120 VPOS
FLAG 3808 -1104 Vcua
FLAG 4288 -928 0
FLAG 4064 -1008 VPOS
FLAG 3616 -1072 VPOS
FLAG 3728 -928 0
SYMBOL voltage 112 -1008 R0
WINDOW 123 0 0 Left 0
WINDOW 39 0 0 Left 0
SYMATTR InstName V10
SYMATTR Value 36
SYMBOL ind 848 -976 R270
WINDOW 0 32 56 VTop 2
WINDOW 3 5 56 VBottom 2
SYMATTR InstName L4
SYMATTR Value {L}
SYMBOL cap 1024 -896 R0
SYMATTR InstName C6
SYMATTR Value {CLOAD}
SYMBOL res 1168 -912 R0
SYMATTR InstName R10
SYMATTR Value {RLOAD}
SYMBOL irf520 240 -944 R270
SYMATTR InstName U3
SYMBOL irf520 592 -944 R0
SYMATTR InstName U6
SYMBOL res 560 -896 R90
WINDOW 0 0 56 VBottom 2
WINDOW 3 32 56 VTop 2
SYMATTR InstName R11
SYMATTR Value 1
SYMBOL res 336 -832 R180
WINDOW 0 36 76 Left 2
WINDOW 3 36 40 Left 2
SYMATTR InstName R12
SYMATTR Value 1
SYMBOL voltage -592 -1072 R0
WINDOW 123 0 0 Left 0
WINDOW 39 0 0 Left 0
SYMATTR InstName V13
SYMATTR Value 15
SYMBOL diode -576 -1152 R180
WINDOW 0 24 64 Left 2
WINDOW 3 24 0 Left 2
SYMATTR InstName D2
SYMATTR Value 1N4007
SYMBOL cap -480 -1136 R90
WINDOW 0 0 32 VBottom 2
WINDOW 3 32 32 VTop 2
SYMATTR InstName C3
SYMATTR Value 270n
SYMBOL cap -640 -992 R180
WINDOW 0 24 56 Left 2
WINDOW 3 24 8 Left 2
SYMATTR InstName C4
SYMATTR Value 270n
SYMBOL voltage -720 -976 R0
WINDOW 123 0 0 Left 0
WINDOW 39 0 0 Left 0
SYMATTR InstName V1
SYMATTR Value 7
SYMBOL IR2110 -832 -1104 R0
SYMATTR InstName U1
SYMBOL NOT 1504 -1216 R0
SYMATTR InstName X1
SYMBOL Opamps\\LT1215 2240 -400 M0
SYMATTR InstName U4
SYMBOL cap 2480 -368 R90
WINDOW 0 0 32 VBottom 2
WINDOW 3 32 32 VTop 2
SYMATTR InstName C2
SYMATTR Value 3.9nF
SYMBOL cap 2304 -480 R90
WINDOW 0 0 32 VBottom 2
WINDOW 3 32 32 VTop 2
SYMATTR InstName C5
SYMATTR Value 13nF
SYMBOL res 2224 -480 R90
WINDOW 0 0 56 VBottom 2
WINDOW 3 32 56 VTop 2
SYMATTR InstName R7
SYMATTR Value 8.6k
SYMBOL res 2592 -368 R90
WINDOW 0 0 56 VBottom 2
WINDOW 3 32 56 VTop 2
SYMATTR InstName R8
SYMATTR Value 360
SYMBOL res 2560 -448 R90
WINDOW 0 0 56 VBottom 2
WINDOW 3 32 56 VTop 2
SYMATTR InstName R9
SYMATTR Value 30k
SYMBOL res 2800 -384 R180
WINDOW 0 36 76 Left 2
WINDOW 3 36 40 Left 2
SYMATTR InstName R13
SYMATTR Value 10k
SYMBOL res 2800 -240 R180
WINDOW 0 36 76 Left 2
WINDOW 3 36 40 Left 2
SYMATTR InstName R14
SYMATTR Value 40.8k
SYMBOL voltage 2032 -240 R0
WINDOW 123 24 44 Left 2
WINDOW 39 0 0 Left 0
SYMATTR Value2 AC 1
SYMATTR InstName Vg1
SYMATTR Value 12
SYMBOL voltage 2336 -288 R0
WINDOW 123 0 0 Left 0
WINDOW 39 0 0 Left 0
SYMATTR InstName V2
SYMATTR Value 5.1
SYMBOL Opamps\\LT1215 2352 -1184 R0
SYMATTR InstName U2
SYMBOL Misc\\NE555 3104 -1040 R0
SYMATTR InstName U5
SYMBOL res 3376 -1008 R180
WINDOW 0 -38 76 Left 2
WINDOW 3 -40 21 Left 2
SYMATTR InstName R1
SYMATTR Value 500
SYMBOL res 3344 -1200 R0
SYMATTR InstName R2
SYMATTR Value 10.5k
SYMBOL cap 3296 -928 R0
SYMATTR InstName C1
SYMATTR Value 454p
SYMBOL cap 3280 -960 R90
WINDOW 0 0 32 VBottom 2
WINDOW 3 32 32 VTop 2
SYMATTR InstName C7
SYMATTR Value 0.01µ
SYMBOL cap 4400 -1280 R90
WINDOW 0 0 32 VBottom 2
WINDOW 3 32 32 VTop 2
SYMATTR InstName C8
SYMATTR Value 45.4p
SYMBOL Opamps\\LT1215 4352 -1136 R0
SYMATTR InstName U7
SYMBOL Opamps\\LT1215 3840 -1152 R0
SYMATTR InstName U8
SYMBOL res 4416 -1216 R90
WINDOW 0 0 56 VBottom 2
WINDOW 3 32 56 VTop 2
SYMATTR InstName R3
SYMATTR Value 110k
SYMBOL res 4112 -1104 M90
WINDOW 0 0 56 VBottom 2
WINDOW 3 32 56 VTop 2
SYMATTR InstName R4
SYMATTR Value 500
SYMBOL res 4112 -1024 M90
WINDOW 0 0 56 VBottom 2
WINDOW 3 32 56 VTop 2
SYMATTR InstName R5
SYMATTR Value 99k
SYMBOL res 4304 -1024 M0
SYMATTR InstName R6
SYMATTR Value 1k
SYMBOL res 3712 -1088 R90
WINDOW 0 0 56 VBottom 2
WINDOW 3 32 56 VTop 2
SYMATTR InstName R15
SYMATTR Value 100k
SYMBOL res 3744 -912 R180
WINDOW 0 36 76 Left 2
WINDOW 3 36 40 Left 2
SYMATTR InstName R16
SYMATTR Value 100k
TEXT 128 -544 Left 2 !.tran 0 3m 0 startup
TEXT -832 -816 Left 2 !.param CLOAD 15u
TEXT -848 -776 Left 2 !.param RLOAD 3
TEXT -848 -704 Left 2 !.param L 15u
TEXT -192 -536 Left 2 !.include irf520.txt
TEXT -160 -392 Left 2 !.include IR2110.txt
TEXT -152 -232 Left 2 !.MODEL 1N4007 D  ( IS=76.9p RS=42.0m BV=1.00k IBV=5.00u\n+ CJO=26.5p  M=0.333 N=1.45 TT=4.32u )
TEXT 640 -464 Left 2 !.options gmin=1e-10\n.options abstol=1e-10\n.options reltol=0.003\n.options cshunt=1e-15
TEXT 3552 -1312 Left 2 ;Generacion del diente de sierra
TEXT 2192 -1056 Left 2 ;Comparador con diente de sierra
RECTANGLE Normal 4672 -1344 2784 -816 2
