Version 4
SHEET 1 4676 680
WIRE 1776 -1936 1344 -1936
WIRE 1472 -1824 1472 -1872
WIRE 1776 -1824 1776 -1936
WIRE 1856 -1824 1776 -1824
WIRE 2000 -1808 1952 -1808
WIRE 2032 -1808 2032 -1840
WIRE 2032 -1808 2000 -1808
WIRE 2384 -1808 2032 -1808
WIRE 2560 -1808 2464 -1808
WIRE 1856 -1792 1824 -1792
WIRE -160 -1760 -240 -1760
WIRE 1424 -1744 1424 -1808
WIRE 1424 -1744 1408 -1744
WIRE -160 -1712 -224 -1712
WIRE 1824 -1712 1824 -1792
WIRE 2016 -1712 1824 -1712
WIRE 1472 -1696 1472 -1728
WIRE 1616 -1696 1472 -1696
WIRE 2000 -1696 2000 -1808
WIRE 2000 -1696 1824 -1696
WIRE 1344 -1648 1344 -1936
WIRE 1344 -1648 1120 -1648
WIRE 1408 -1648 1408 -1744
WIRE 1408 -1648 1344 -1648
WIRE 1472 -1648 1472 -1696
WIRE 1824 -1648 1824 -1696
WIRE 1856 -1648 1824 -1648
WIRE 576 -1632 528 -1632
WIRE 1024 -1632 976 -1632
WIRE 2000 -1632 1952 -1632
WIRE 2016 -1632 2016 -1712
WIRE 2016 -1632 2000 -1632
WIRE 2128 -1632 2016 -1632
WIRE 2256 -1632 2208 -1632
WIRE 2384 -1632 2336 -1632
WIRE 2496 -1632 2464 -1632
WIRE -160 -1616 -224 -1616
WIRE 1120 -1616 1120 -1648
WIRE 1120 -1616 1088 -1616
WIRE 1616 -1616 1616 -1696
WIRE 1856 -1616 1616 -1616
WIRE 528 -1600 528 -1632
WIRE 976 -1600 880 -1600
WIRE 1024 -1600 976 -1600
WIRE -144 -1568 -224 -1568
WIRE 416 -1568 416 -1728
WIRE 416 -1568 352 -1568
WIRE 1408 -1568 1408 -1648
WIRE 1424 -1568 1408 -1568
WIRE 2000 -1568 2000 -1632
WIRE 528 -1536 352 -1536
WIRE -144 -1520 -224 -1520
WIRE 1472 -1520 1472 -1552
WIRE 576 -1504 576 -1632
WIRE 576 -1504 352 -1504
WIRE 224 -1488 208 -1488
WIRE 640 -1472 640 -1504
WIRE 640 -1472 352 -1472
WIRE 208 -1456 208 -1488
WIRE 224 -1456 208 -1456
WIRE 464 -1440 352 -1440
WIRE 528 -1440 528 -1536
WIRE 224 -1424 128 -1424
WIRE 368 -1408 352 -1408
WIRE 464 -1344 464 -1440
WIRE 2800 -1344 2768 -1344
WIRE 2912 -1344 2864 -1344
WIRE 1840 -1232 1760 -1232
WIRE 2048 -1232 1840 -1232
WIRE 2768 -1232 2768 -1344
WIRE 2784 -1232 2768 -1232
WIRE 2800 -1232 2784 -1232
WIRE 2912 -1232 2912 -1344
WIRE 2912 -1232 2880 -1232
WIRE 1792 -1216 1360 -1216
WIRE 1840 -1216 1840 -1232
WIRE 2048 -1216 2048 -1232
WIRE 1840 -1136 1840 -1152
WIRE 2048 -1120 2048 -1152
WIRE 2608 -1120 2352 -1120
WIRE 2784 -1120 2784 -1232
WIRE 2784 -1120 2688 -1120
WIRE 2800 -1120 2784 -1120
WIRE 1360 -1104 1360 -1216
WIRE 1472 -1104 1360 -1104
WIRE 1760 -1104 1760 -1232
WIRE 1760 -1104 1696 -1104
WIRE 2912 -1104 2912 -1232
WIRE 2912 -1104 2864 -1104
WIRE 2960 -1104 2912 -1104
WIRE 2800 -1088 2768 -1088
WIRE 256 -1056 240 -1056
WIRE 1472 -1040 1392 -1040
WIRE 1792 -1040 1792 -1216
WIRE 1792 -1040 1696 -1040
WIRE 1840 -1040 1840 -1056
WIRE 1840 -1040 1792 -1040
WIRE 2048 -1040 1840 -1040
WIRE 2608 -1040 2544 -1040
WIRE 2768 -1040 2768 -1088
WIRE 2768 -1040 2688 -1040
WIRE 112 -976 64 -976
WIRE 176 -976 176 -1056
WIRE 256 -976 256 -1056
WIRE 528 -976 256 -976
WIRE 1744 -976 1696 -976
WIRE 1792 -960 1792 -1040
WIRE 64 -880 64 -976
WIRE 64 -880 32 -880
WIRE 128 -880 64 -880
WIRE 240 -880 208 -880
WIRE 336 -880 304 -880
WIRE 416 -880 336 -880
WIRE 528 -880 528 -976
WIRE 528 -880 496 -880
WIRE 640 -880 640 -1472
WIRE 640 -880 528 -880
WIRE 768 -880 640 -880
WIRE 864 -880 768 -880
WIRE 992 -880 944 -880
WIRE 1040 -880 992 -880
WIRE 1184 -880 1040 -880
WIRE 1744 -880 1744 -912
WIRE 1792 -880 1792 -896
WIRE 1792 -880 1744 -880
WIRE 640 -848 640 -880
WIRE 352 -832 320 -832
WIRE 528 -832 528 -880
WIRE 528 -832 416 -832
WIRE 320 -816 320 -832
WIRE 1040 -784 1040 -880
WIRE 592 -752 576 -752
WIRE 576 -736 576 -752
WIRE 576 -736 560 -736
WIRE 320 -704 320 -736
WIRE 560 -704 560 -736
WIRE 560 -704 544 -704
WIRE 592 -688 592 -752
WIRE 768 -688 768 -880
WIRE 816 -688 768 -688
WIRE 640 -672 640 -688
WIRE 2544 -672 2368 -672
WIRE 2544 -656 2544 -672
WIRE 464 -640 464 -704
WIRE 1664 -640 1632 -640
WIRE 1776 -640 1744 -640
WIRE 1872 -640 1840 -640
WIRE 560 -624 560 -704
WIRE 1536 -624 1472 -624
WIRE 1616 -624 1616 -672
WIRE 816 -608 816 -624
WIRE 816 -608 768 -608
WIRE 2000 -608 1936 -608
WIRE 2144 -608 2080 -608
WIRE 1552 -592 1552 -608
WIRE 1776 -576 1776 -592
WIRE 640 -560 640 -672
WIRE 1552 -560 1552 -592
WIRE 1616 -544 1616 -624
WIRE 1616 -544 1584 -544
WIRE 1776 -544 1776 -576
WIRE 1472 -528 1472 -624
WIRE 1520 -528 1472 -528
WIRE 1872 -528 1872 -640
WIRE 1872 -528 1808 -528
WIRE 1936 -528 1936 -608
WIRE 1936 -528 1872 -528
WIRE 1952 -528 1936 -528
WIRE 2032 -528 2016 -528
WIRE 2144 -528 2144 -608
WIRE 2144 -528 2112 -528
WIRE 2368 -528 2144 -528
WIRE 2544 -528 2544 -576
WIRE 2544 -528 2368 -528
WIRE 1472 -512 1472 -528
WIRE 1472 -512 1408 -512
WIRE 1632 -512 1632 -640
WIRE 1632 -512 1584 -512
WIRE 1744 -512 1632 -512
WIRE 2544 -512 2544 -528
WIRE 1872 -496 1808 -496
WIRE 560 -480 560 -560
WIRE 640 -480 560 -480
WIRE 768 -480 768 -544
WIRE 768 -480 640 -480
WIRE 992 -480 992 -816
WIRE 992 -480 768 -480
WIRE 1040 -480 1040 -720
WIRE 1040 -480 992 -480
WIRE 1552 -448 1552 -496
WIRE 1872 -448 1872 -496
WIRE 1776 -432 1776 -480
FLAG 320 -704 HO2
FLAG 464 -640 LO2
FLAG 224 -1552 LO2
FLAG 224 -1520 HO2
FLAG 416 -1728 HIN
FLAG 128 -1424 LIN
FLAG 976 -1632 Vsaw
FLAG 1392 -1040 Vcua
FLAG 2960 -1104 Vsaw
FLAG 2352 -1120 Vcua
FLAG 2496 -1632 LIN
FLAG 2560 -1808 HIN
FLAG -240 -1760 V-
IOPIN -240 -1760 In
FLAG -224 -1712 Vref
IOPIN -224 -1712 In
FLAG 1472 -1520 GND
IOPIN 1472 -1520 BiDir
FLAG 2000 -1504 GND
IOPIN 2000 -1504 BiDir
FLAG 1904 -1584 GND
IOPIN 1904 -1584 BiDir
FLAG 1904 -1760 GND
IOPIN 1904 -1760 BiDir
FLAG 2432 -1776 GND
IOPIN 2432 -1776 BiDir
FLAG 2176 -1600 GND
IOPIN 2176 -1600 BiDir
FLAG 2304 -1600 GND
IOPIN 2304 -1600 BiDir
FLAG 2432 -1600 GND
IOPIN 2432 -1600 BiDir
FLAG 1056 -1584 GND
IOPIN 1056 -1584 BiDir
FLAG 1744 -880 GND
IOPIN 1744 -880 BiDir
FLAG 1472 -1168 GND
IOPIN 1472 -1168 BiDir
FLAG 2832 -1072 GND
IOPIN 2832 -1072 BiDir
FLAG 2768 -960 GND
IOPIN 2768 -960 BiDir
FLAG 2544 -432 GND
IOPIN 2544 -432 BiDir
FLAG 1872 -448 Vref
FLAG -160 -1712 Vref
FLAG -224 -1568 VDD
IOPIN -224 -1568 In
FLAG -144 -1568 VDD
FLAG 464 -1344 VDD
FLAG -224 -1520 VCC
IOPIN -224 -1520 In
FLAG -144 -1520 VCC
FLAG 528 -1440 VCC
FLAG 208 -1488 GND
IOPIN 208 -1488 BiDir
FLAG 368 -1408 GND
IOPIN 368 -1408 BiDir
FLAG 1040 -480 GND
IOPIN 1040 -480 BiDir
FLAG 1776 -576 VDD
FLAG -160 -1760 V-
FLAG 1776 -432 V-
FLAG 2832 -1136 VDD
FLAG -224 -1616 Vin
IOPIN -224 -1616 In
FLAG -160 -1616 Vin
FLAG 32 -880 Vin
FLAG 1696 -1168 VDD
FLAG 1840 -1312 VDD
FLAG 1904 -1856 VDD
FLAG 1904 -1680 VDD
FLAG 1472 -976 VDD
FLAG 2544 -1040 VDD
FLAG 2032 -1904 GND
IOPIN 2032 -1904 BiDir
FLAG 1184 -880 VREG
IOPIN 1184 -880 Out
FLAG 2544 -672 VREG
IOPIN 2544 -672 Out
FLAG 1056 -1648 VDD
FLAG 1472 -1872 VDD
FLAG 2432 -1840 VDD
FLAG 2176 -1664 VDD
FLAG 2304 -1664 VDD
FLAG 2432 -1664 VDD
FLAG 976 -1600 Verr
FLAG 1552 -592 VDD
FLAG 1552 -448 V-
FLAG 1616 -752 GND
IOPIN 1616 -752 BiDir
FLAG 1408 -512 Verr
SYMBOL ind 848 -864 R270
WINDOW 0 32 56 VTop 2
WINDOW 3 5 56 VBottom 2
SYMATTR InstName L4
SYMATTR Value {L}
SYMBOL cap 1024 -784 R0
SYMATTR InstName C6
SYMATTR Value {C}
SYMATTR SpiceLine Rser=100m
SYMBOL irf520 592 -768 R0
SYMATTR InstName U6
SYMBOL res 560 -720 R90
WINDOW 0 0 56 VBottom 2
WINDOW 3 32 56 VTop 2
SYMATTR InstName R11
SYMATTR Value 1
SYMBOL res 336 -720 R180
WINDOW 0 36 76 Left 2
WINDOW 3 36 40 Left 2
SYMATTR InstName R12
SYMATTR Value 1
SYMBOL diode 544 -1536 R180
WINDOW 0 24 64 Left 2
WINDOW 3 24 0 Left 2
SYMATTR InstName D2
SYMATTR Value 1N4007
SYMBOL cap 640 -1520 R90
WINDOW 0 0 32 VBottom 2
WINDOW 3 32 32 VTop 2
SYMATTR InstName C3
SYMATTR Value 270n
SYMBOL IR2110 288 -1488 R0
SYMATTR InstName U1
SYMBOL cap 2016 -544 R90
WINDOW 0 0 32 VBottom 2
WINDOW 3 32 32 VTop 2
SYMATTR InstName C2
SYMATTR Value 1n
SYMBOL cap 1840 -656 R90
WINDOW 0 0 32 VBottom 2
WINDOW 3 32 32 VTop 2
SYMATTR InstName C5
SYMATTR Value 1n
SYMBOL res 1760 -656 R90
WINDOW 0 0 56 VBottom 2
WINDOW 3 32 56 VTop 2
SYMATTR InstName R7
SYMATTR Value 100k
SYMBOL res 2128 -544 R90
WINDOW 0 0 56 VBottom 2
WINDOW 3 32 56 VTop 2
SYMATTR InstName R8
SYMATTR Value 3.3k
SYMBOL res 2096 -624 R90
WINDOW 0 0 56 VBottom 2
WINDOW 3 32 56 VTop 2
SYMATTR InstName R9
SYMATTR Value 120k
SYMBOL res 2560 -416 R180
WINDOW 0 36 76 Left 2
WINDOW 3 36 40 Left 2
SYMATTR InstName R13
SYMATTR Value 10k
SYMBOL res 2560 -560 R180
WINDOW 0 36 76 Left 2
WINDOW 3 36 40 Left 2
SYMATTR InstName R14
SYMATTR Value 42.9k
SYMBOL Misc\\NE555 1584 -1072 R0
SYMATTR InstName U5
SYMBOL res 1856 -1040 R180
WINDOW 0 -38 76 Left 2
WINDOW 3 -40 21 Left 2
SYMATTR InstName R1
SYMATTR Value 400
SYMBOL res 2032 -1136 R0
SYMATTR InstName R2
SYMATTR Value 10.9k
SYMBOL cap 1776 -960 R0
SYMATTR InstName C1
SYMATTR Value 454p
SYMBOL cap 1760 -912 R180
WINDOW 0 24 56 Left 2
WINDOW 3 24 8 Left 2
SYMATTR InstName C7
SYMATTR Value 0.01µ
SYMBOL cap 2864 -1360 R90
WINDOW 0 0 32 VBottom 2
WINDOW 3 32 32 VTop 2
SYMATTR InstName C8
SYMATTR Value 120p
SYMBOL Opamps\\LT1215 2832 -1168 R0
SYMATTR InstName U7
SYMBOL res 2896 -1248 R90
WINDOW 0 0 56 VBottom 2
WINDOW 3 32 56 VTop 2
SYMATTR InstName R3
SYMATTR Value 110k
SYMBOL res 2592 -1136 M90
WINDOW 0 0 56 VBottom 2
WINDOW 3 32 56 VTop 2
SYMATTR InstName R4
SYMATTR Value 400
SYMBOL res 2592 -1056 M90
WINDOW 0 0 56 VBottom 2
WINDOW 3 32 56 VTop 2
SYMATTR InstName R5
SYMATTR Value 99k
SYMBOL res 2784 -1056 M0
SYMATTR InstName R6
SYMATTR Value 1k
SYMBOL nmos 1424 -1648 R0
SYMATTR InstName M1
SYMATTR Value NDC7002N
SYMBOL pmos 1424 -1728 M180
SYMATTR InstName M2
SYMATTR Value Si1013
SYMBOL res 1824 -1328 R0
SYMATTR InstName R17
SYMATTR Value 100
SYMBOL diode 1824 -1216 R0
SYMATTR InstName D1
SYMATTR Value 1N4148
SYMBOL diode 2064 -1152 R180
WINDOW 0 24 64 Left 2
WINDOW 3 24 0 Left 2
SYMATTR InstName D3
SYMATTR Value 1N4148
SYMBOL Comparators\\LT1720 1056 -1680 R0
SYMATTR InstName U8
SYMBOL NAND 1872 -1808 R0
SYMATTR InstName X1
SYMBOL NAND 1872 -1632 R0
SYMATTR InstName X2
SYMBOL cap 1984 -1568 R0
SYMATTR InstName C9
SYMATTR Value 200p
SYMBOL cap 2048 -1840 R180
WINDOW 0 24 56 Left 2
WINDOW 3 24 8 Left 2
SYMATTR InstName C10
SYMATTR Value 200p
SYMBOL NOT 2416 -1808 R0
SYMATTR InstName X5
SYMBOL NOT 2160 -1632 R0
SYMATTR InstName X7
SYMBOL NOT 2288 -1632 R0
SYMATTR InstName X8
SYMBOL NOT 2416 -1632 R0
SYMATTR InstName X9
SYMBOL TL081 1776 -512 M0
SYMATTR InstName U2
SYMBOL cap 2352 -592 R0
SYMATTR InstName C12
SYMATTR Value 100p
SYMBOL res 2352 -688 R0
SYMATTR InstName R16
SYMATTR Value 100
SYMBOL cap 976 -880 R0
SYMATTR InstName C11
SYMATTR Value 1n
SYMATTR SpiceLine Rser=1m
SYMBOL cap 544 -624 R0
SYMATTR InstName C4
SYMATTR Value 3.3n
SYMBOL ind 656 -464 R180
WINDOW 0 36 80 Left 2
WINDOW 3 36 40 Left 2
SYMATTR InstName L1
SYMATTR Value 7.5n
SYMBOL cap 784 -544 R180
WINDOW 0 24 56 Left 2
WINDOW 3 24 8 Left 2
SYMATTR InstName C13
SYMATTR Value 10n
SYMBOL res 784 -592 R180
WINDOW 0 36 76 Left 2
WINDOW 3 36 40 Left 2
SYMATTR InstName R10
SYMATTR Value 10
SYMBOL diode 800 -688 R0
SYMATTR InstName D4
SYMATTR Value 1N4007
SYMBOL irf520 240 -832 R270
SYMATTR InstName U4
SYMBOL cap 416 -848 R90
WINDOW 0 0 32 VBottom 2
WINDOW 3 32 32 VTop 2
SYMATTR InstName C14
SYMATTR Value 3.3n
SYMBOL ind 512 -896 R90
WINDOW 0 5 56 VBottom 2
WINDOW 3 32 56 VTop 2
SYMATTR InstName L2
SYMATTR Value 7.5n
SYMBOL cap 176 -992 R90
WINDOW 0 0 32 VBottom 2
WINDOW 3 32 32 VTop 2
SYMATTR InstName C15
SYMATTR Value 10n
SYMBOL res 272 -992 R90
WINDOW 0 0 56 VBottom 2
WINDOW 3 32 56 VTop 2
SYMATTR InstName R15
SYMATTR Value 10
SYMBOL diode 176 -1040 R270
WINDOW 0 32 32 VTop 2
WINDOW 3 0 32 VBottom 2
SYMATTR InstName D5
SYMATTR Value 1N4007
SYMBOL ind 656 -752 R180
WINDOW 0 36 80 Left 2
WINDOW 3 36 40 Left 2
SYMATTR InstName L3
SYMATTR Value 4.5n
SYMBOL ind 224 -896 R90
WINDOW 0 5 56 VBottom 2
WINDOW 3 32 56 VTop 2
SYMATTR InstName L5
SYMATTR Value 4.5n
SYMBOL TL081 1552 -528 M0
SYMATTR InstName U3
SYMBOL res 1632 -656 R180
WINDOW 0 36 76 Left 2
WINDOW 3 36 40 Left 2
SYMATTR InstName R18
SYMATTR Value 1k
SYMBOL res 1632 -640 R90
WINDOW 0 0 56 VBottom 2
WINDOW 3 32 56 VTop 2
SYMATTR InstName R19
SYMATTR Value 5k
TEXT -304 -1408 Left 2 !.param C 100u
TEXT -304 -1384 Left 2 !.param L 65.3u
TEXT -304 -1312 Left 2 !.include irf520.txt
TEXT -304 -1280 Left 2 !.include IR2110.txt
TEXT -304 -1208 Left 2 !.MODEL 1N4007 D  ( IS=76.9p RS=42.0m BV=1.00k IBV=5.00u\n+ CJO=26.5p  M=0.333 N=1.45 TT=4.32u )
TEXT 2032 -1360 Left 2 ;Generacion del diente de sierra
TEXT 872 -1768 Left 2 ;Comparador con diente de sierra
TEXT 32 -1768 Left 2 ;Driver
TEXT 1328 -808 Left 2 ;Error amp
TEXT 2344 -688 Left 2 ;f
TEXT -296 -1792 Left 2 ;Puertos
TEXT 1568 -1968 Left 2 ;Generador de dead-time
TEXT -304 -1440 Left 2 ;Parametros
TEXT -304 -1240 Left 2 ;Modelos
TEXT -304 -1352 Left 2 ;Librerías
LINE Normal -16 -1808 -240 -1808 2
LINE Normal -16 -1600 -16 -1776 2
LINE Normal -240 -1472 -16 -1472 2
LINE Normal -304 -1776 -304 -1600 2
LINE Normal -304 -1808 -304 -1776 2
LINE Normal -16 -1776 -16 -1808 2
LINE Normal -16 -1472 -16 -1600 2
LINE Normal -240 -1472 -16 -1472 2
LINE Normal -304 -1600 -304 -1472 2
LINE Normal -240 -1472 -304 -1472 2
LINE Normal -240 -1808 -304 -1808 2
RECTANGLE Normal 3184 -1392 1296 -848 2
RECTANGLE Normal 2208 -320 1296 -832 2
RECTANGLE Normal 2704 -336 2304 -704 2
RECTANGLE Normal 1264 -1472 832 -1808 2
RECTANGLE Normal 2640 -1408 1296 -2000 2
RECTANGLE Normal 800 -1264 16 -1808 2
