Version 4
SHEET 1 26844 1796
WIRE 512 -208 400 -208
WIRE 672 -208 592 -208
WIRE 128 0 128 -32
WIRE 800 48 672 48
WIRE 512 80 512 48
WIRE 672 80 672 48
WIRE 800 96 800 48
WIRE 1616 128 1440 128
WIRE 1872 128 1616 128
WIRE 128 160 128 80
WIRE 1440 176 1440 128
WIRE 1440 176 1408 176
WIRE 1872 256 1872 208
WIRE 128 288 128 240
WIRE 704 304 672 304
WIRE 784 320 768 320
WIRE 832 320 784 320
WIRE 928 320 912 320
WIRE 528 336 480 336
WIRE 672 336 608 336
WIRE 704 336 672 336
WIRE 928 336 928 320
WIRE 480 352 480 336
WIRE 672 384 672 336
WIRE 784 384 784 320
WIRE 784 384 672 384
WIRE 928 432 928 400
WIRE 480 464 480 432
FLAG 400 -208 0
FLAG 672 -208 V-
FLAG 512 160 0
FLAG 512 48 VDD
FLAG 672 160 0
FLAG 672 48 VCC
FLAG 800 160 0
FLAG 128 -32 Vin
FLAG 1616 128 VREG
FLAG 1248 96 V-
FLAG 1872 256 0
FLAG 1408 144 0
FLAG 1248 224 Vref
FLAG 1248 192 Vin
FLAG 1248 160 VDD
FLAG 1248 128 VCC
FLAG 128 288 0
FLAG 480 464 0
FLAG 736 352 0
FLAG 928 432 0
FLAG 672 304 0
FLAG 928 320 Vref
FLAG 736 288 VDD
SYMBOL voltage 608 -208 R90
WINDOW 123 0 0 Left 0
WINDOW 39 -17 18 VRight 2
WINDOW 0 -45 18 VRight 2
WINDOW 3 -43 75 VRight 2
SYMATTR SpiceLine Rser=100m
SYMATTR InstName V2
SYMATTR Value -5
SYMBOL voltage 512 64 R0
WINDOW 123 0 0 Left 0
WINDOW 39 24 124 Left 2
SYMATTR SpiceLine Rser=100m
SYMATTR InstName V1
SYMATTR Value 7
SYMBOL voltage 672 64 R0
WINDOW 123 0 0 Left 0
WINDOW 39 0 0 Left 0
SYMATTR InstName V6
SYMATTR Value 12
SYMBOL cap 816 160 R180
WINDOW 0 24 56 Left 2
WINDOW 3 24 8 Left 2
SYMATTR InstName C2
SYMATTR Value 270n
SYMBOL res 1856 112 R0
SYMATTR InstName R6
SYMATTR Value {RLOAD}
SYMBOL buck 1328 160 R0
SYMATTR InstName X3
SYMBOL voltage 128 -16 R0
WINDOW 123 0 0 Left 0
WINDOW 39 0 0 Left 0
SYMATTR InstName V3
SYMATTR Value 36
SYMBOL voltage 128 144 R0
WINDOW 123 0 0 Left 0
WINDOW 39 0 0 Left 0
SYMATTR InstName V4
SYMATTR Value PULSE(0 -24 .5m 10u 10u 1.5m)
SYMBOL voltage 480 336 R0
WINDOW 123 0 0 Left 0
WINDOW 39 0 0 Left 0
SYMATTR InstName V5
SYMATTR Value 1.2
SYMBOL Opamps\\LT1215 736 256 R0
SYMATTR InstName U1
SYMBOL cap 912 336 R0
SYMATTR InstName C1
SYMATTR Value .1µ
SYMBOL res 928 304 R90
WINDOW 0 0 56 VBottom 2
WINDOW 3 32 56 VTop 2
SYMATTR InstName R1
SYMATTR Value 1k
SYMBOL res 624 320 R90
WINDOW 0 0 56 VBottom 2
WINDOW 3 32 56 VTop 2
SYMATTR InstName R2
SYMATTR Value 10
TEXT 1704 -80 Left 2 !.step param RLOAD list 3.7 60
TEXT 104 -280 Left 2 ;Support
TEXT 1704 -224 Left 2 ;Simulación
TEXT 1704 -104 Left 2 ;Parametros
TEXT 1712 112 Left 2 ;Carga BUCK
TEXT 1280 400 Left 2 !.options gmin=1e-10\n.options abstol=1e-10\n.options reltol=0.0005\n.options cshunt=1e-15
TEXT 1704 -192 Left 2 !.tran 0 3m 0 startup
TEXT 600 360 Left 2 ;Ref1
RECTANGLE Normal 976 512 96 -304 4
RECTANGLE Normal 2016 288 1696 96 4
