Version 4
SHEET 1 26844 1796
WIRE 512 -208 400 -208
WIRE 672 -208 592 -208
WIRE 448 -96 400 -96
WIRE 592 -96 528 -96
WIRE 688 -96 672 -96
WIRE 800 48 672 48
WIRE 368 80 368 48
WIRE 512 80 512 48
WIRE 672 80 672 48
WIRE 800 96 800 48
WIRE 1616 128 1440 128
WIRE 1872 128 1616 128
WIRE 1440 176 1440 128
WIRE 1440 176 1408 176
WIRE 1872 256 1872 208
FLAG 400 -208 0
FLAG 672 -208 V-
FLAG 400 -96 0
FLAG 688 -96 Vref
FLAG 512 160 0
FLAG 512 48 VDD
FLAG 672 160 0
FLAG 672 48 VCC
FLAG 800 160 0
FLAG 368 160 0
FLAG 368 48 Vin
FLAG 1616 128 VREG
FLAG 1248 96 V-
FLAG 1872 256 0
FLAG 1408 144 0
FLAG 1248 224 Vref
FLAG 1248 192 Vin
FLAG 1248 160 VDD
FLAG 1248 128 VCC
SYMBOL voltage 608 -208 R90
WINDOW 123 0 0 Left 0
WINDOW 39 -17 18 VRight 2
WINDOW 0 -45 18 VRight 2
WINDOW 3 -43 75 VRight 2
SYMATTR SpiceLine Rser=100m
SYMATTR InstName V2
SYMATTR Value -5
SYMBOL voltage 544 -96 R90
WINDOW 123 0 0 Left 0
WINDOW 39 0 0 Left 0
WINDOW 3 44 96 VLeft 2
WINDOW 0 -45 30 VRight 2
SYMATTR Value 1.2
SYMATTR InstName Vref1
SYMBOL res 688 -112 R90
WINDOW 0 0 56 VBottom 2
WINDOW 3 32 56 VTop 2
SYMATTR InstName R18
SYMATTR Value 10
SYMBOL voltage 512 64 R0
WINDOW 123 0 0 Left 0
WINDOW 39 24 124 Left 2
SYMATTR SpiceLine Rser=100m
SYMATTR InstName V1
SYMATTR Value 7
SYMBOL voltage 672 64 R0
WINDOW 123 0 0 Left 0
WINDOW 39 0 0 Left 0
SYMATTR InstName V6
SYMATTR Value 15
SYMBOL cap 816 160 R180
WINDOW 0 24 56 Left 2
WINDOW 3 24 8 Left 2
SYMATTR InstName C2
SYMATTR Value 270n
SYMBOL voltage 368 64 R0
WINDOW 123 0 0 Left 0
WINDOW 39 0 0 Left 0
SYMATTR InstName V7
SYMATTR Value 36
SYMBOL res 1856 112 R0
SYMATTR InstName R6
SYMATTR Value {RLOAD}
SYMBOL buck 1328 160 R0
SYMATTR InstName X3
TEXT 1704 -80 Left 2 !.param RLOAD 3.7
TEXT 536 -80 Left 2 ;Ref1
TEXT 104 -280 Left 2 ;Support
TEXT 1704 -224 Left 2 ;Simulación
TEXT 1704 -104 Left 2 ;Parametros
TEXT 1712 112 Left 2 ;Carga BUCK
TEXT 1280 400 Left 2 !.options gmin=1e-10\n.options abstol=1e-10\n.options reltol=0.0005\n.options cshunt=1e-15
TEXT 1704 -192 Left 2 !.tran 0 10m 0 startup
RECTANGLE Normal 976 512 96 -304 4
RECTANGLE Normal 2016 288 1696 96 4
