Version 4
SHEET 1 26844 1796
WIRE 672 -624 544 -624
WIRE 240 -592 240 -624
WIRE 384 -592 384 -624
WIRE 544 -592 544 -624
WIRE 672 -576 672 -624
WIRE 1184 -560 1152 -560
WIRE 1232 -560 1184 -560
WIRE 1232 -528 1232 -560
WIRE 1232 -432 1232 -448
WIRE 512 -208 400 -208
WIRE 672 -208 592 -208
WIRE 1456 -160 1360 -160
WIRE 1360 -112 1360 -160
WIRE 1360 -112 1328 -112
WIRE 448 -96 400 -96
WIRE 592 -96 528 -96
WIRE 688 -96 672 -96
WIRE 448 16 400 16
WIRE 688 16 528 16
WIRE 336 144 272 144
WIRE 464 144 416 144
WIRE 576 144 464 144
WIRE 672 144 576 144
WIRE 576 176 576 144
WIRE 1408 176 1392 176
WIRE 1808 192 1424 192
WIRE 1856 192 1808 192
WIRE 1408 208 1392 208
WIRE 1424 240 1424 192
WIRE 1424 240 1392 240
WIRE 272 256 272 144
WIRE 464 272 464 144
WIRE 1808 288 1808 256
WIRE 1856 288 1856 272
WIRE 1856 288 1808 288
WIRE 576 304 576 256
WIRE 576 304 496 304
WIRE 1856 320 1856 288
WIRE 576 336 576 304
WIRE 272 416 272 336
WIRE 464 416 464 336
WIRE 464 416 272 416
WIRE 576 416 464 416
WIRE 272 464 272 416
WIRE 1408 528 1392 528
WIRE 1808 544 1424 544
WIRE 1856 544 1808 544
WIRE 1408 560 1392 560
WIRE 1424 592 1424 544
WIRE 1424 592 1392 592
WIRE 1808 640 1808 608
WIRE 1856 640 1856 624
WIRE 1856 640 1808 640
WIRE 1856 672 1856 640
FLAG 1232 -432 0
FLAG 400 -208 0
FLAG 672 -208 V-
FLAG 1728 -416 0
FLAG 1728 -496 VAR
FLAG 400 16 0
FLAG 1264 96 VREG
FLAG 1136 304 V-
FLAG 1184 -560 S
FLAG 1136 160 S
FLAG 688 16 E
FLAG 1136 256 E
FLAG 1856 320 0
FLAG 400 -96 0
FLAG 1264 336 0
FLAG 1136 208 Vposa
FLAG 272 464 0
FLAG 672 144 Vposa
FLAG 1136 128 Vref
FLAG 688 -96 Vref
FLAG 1264 448 VREG
FLAG 1136 656 V-
FLAG 1136 512 S
FLAG 1136 608 E
FLAG 1856 672 0
FLAG 1264 688 0
FLAG 1136 560 Vposa
FLAG 1136 480 Vref
FLAG 384 -512 0
FLAG 384 -624 VDD
FLAG 544 -512 0
FLAG 544 -624 VCC
FLAG 672 -512 0
FLAG 240 -512 0
FLAG 240 -624 Vin
FLAG 1168 -192 V-
FLAG 1328 -144 0
FLAG 1456 -160 VREG
FLAG 1168 -160 VCC
FLAG 1168 -128 VDD
FLAG 1168 -96 Vin
FLAG 1168 -64 Vref
SYMBOL voltage 1232 -544 R0
WINDOW 123 0 0 Left 0
WINDOW 39 0 0 Left 0
SYMATTR InstName SEL1
SYMATTR Value PWL(500m 5 501m 0 1 0)
SYMBOL voltage 608 -208 R90
WINDOW 123 0 0 Left 0
WINDOW 39 0 0 Left 0
WINDOW 0 -45 18 VRight 2
WINDOW 3 -43 75 VRight 2
SYMATTR InstName V2
SYMATTR Value -5
SYMBOL voltage 1728 -512 R0
WINDOW 123 0 0 Left 0
WINDOW 39 0 0 Left 0
WINDOW 3 33 88 Left 2
SYMATTR Value PWL(25m 5 75m 250 250m 250 270m 0.01 350m 0.01 400m 15 475m 15 500m 5 525m 5 575m 250 750m 250 770m 0.01 850m 0.01 900m 15 975m 15 1 5)
SYMATTR InstName V3
SYMBOL voltage 544 16 R90
WINDOW 123 0 0 Left 0
WINDOW 39 0 0 Left 0
WINDOW 0 41 73 VRight 2
WINDOW 3 74 -383 VRight 2
SYMATTR InstName V4
SYMATTR Value PWL(125m 5 126m 0 150m 0 175m 5 625m 5 626m 0 650m 0 675m 5)
SYMBOL cap 1824 256 R180
WINDOW 0 24 56 Left 2
WINDOW 3 24 8 Left 2
SYMATTR InstName C3
SYMATTR Value {CLOAD}
SYMBOL res 1840 176 R0
SYMATTR InstName R17
SYMATTR Value R=v(VAR)
SYMBOL voltage 544 -96 R90
WINDOW 123 0 0 Left 0
WINDOW 39 0 0 Left 0
WINDOW 3 44 96 VLeft 2
WINDOW 0 -45 30 VRight 2
SYMATTR Value 1.2
SYMATTR InstName Vref1
SYMBOL res 688 -112 R90
WINDOW 0 0 56 VBottom 2
WINDOW 3 32 56 VTop 2
SYMATTR InstName R18
SYMATTR Value 10
SYMBOL LDOB 1264 208 R0
SYMATTR InstName X2
SYMBOL voltage 272 240 R0
WINDOW 123 0 0 Left 0
WINDOW 39 0 0 Left 0
SYMATTR InstName V5
SYMATTR Value 5
SYMBOL res 432 128 R90
WINDOW 0 0 56 VBottom 2
WINDOW 3 32 56 VTop 2
SYMATTR InstName R1
SYMATTR Value 3.6k
SYMBOL References\\LT1009 464 304 R0
SYMATTR InstName U1
SYMBOL res 560 160 R0
SYMATTR InstName R2
SYMATTR Value 5k
SYMBOL res 560 320 R0
SYMATTR InstName R3
SYMATTR Value 5k
SYMBOL cap 1824 608 R180
WINDOW 0 24 56 Left 2
WINDOW 3 24 8 Left 2
SYMATTR InstName C1
SYMATTR Value {CLOAD}
SYMBOL res 1840 528 R0
SYMATTR InstName R4
SYMATTR Value R=v(VAR)
SYMBOL LDOA 1264 560 R0
SYMATTR InstName X1
SYMBOL voltage 384 -608 R0
WINDOW 123 0 0 Left 0
WINDOW 39 0 0 Left 0
SYMATTR InstName V1
SYMATTR Value 7
SYMBOL voltage 544 -608 R0
WINDOW 123 0 0 Left 0
WINDOW 39 0 0 Left 0
SYMATTR InstName V6
SYMATTR Value 15
SYMBOL cap 688 -512 R180
WINDOW 0 24 56 Left 2
WINDOW 3 24 8 Left 2
SYMATTR InstName C2
SYMATTR Value 270n
SYMBOL voltage 240 -608 R0
WINDOW 123 0 0 Left 0
WINDOW 39 0 0 Left 0
SYMATTR InstName V7
SYMATTR Value 36
SYMBOL buck 1248 -128 R0
SYMATTR InstName X3
TEXT 1704 -168 Left 2 !.op
TEXT 1704 -80 Left 2 !.param CLOAD 15u
TEXT 1704 -192 Left 2 !.tran 0 1 0 .00005
TEXT 536 32 Left 2 ;Enable
TEXT 1728 288 Left 2 ;Carga
TEXT 1696 176 Left 2 ;Carga LDOB
TEXT 536 -80 Left 2 ;Ref1
TEXT 616 160 Left 2 ;Ref2
TEXT 104 -280 Left 2 ;Support
TEXT 1704 -224 Left 2 ;Simulación
TEXT 1704 -104 Left 2 ;Parametros
TEXT 1344 -576 Left 2 ;Selección usuario
TEXT 1728 640 Left 2 ;Carga
TEXT 1696 528 Left 2 ;Carga LDOA
RECTANGLE Normal 2000 352 1680 160 4
RECTANGLE Normal 976 512 96 -304 4
RECTANGLE Normal 1552 -384 1136 -592 4
RECTANGLE Normal 2000 704 1680 512 4
