Version 4
SHEET 1 1084 696
WIRE -208 -48 -640 -48
WIRE -512 96 -512 48
WIRE -208 96 -208 -48
WIRE -128 96 -208 96
WIRE 1008 96 928 96
WIRE 16 112 -32 112
WIRE 48 112 48 80
WIRE 48 112 16 112
WIRE 400 112 48 112
WIRE 928 112 928 96
WIRE 928 112 480 112
WIRE -128 128 -160 128
WIRE -560 176 -560 112
WIRE -560 176 -576 176
WIRE -160 208 -160 128
WIRE 32 208 -160 208
WIRE -512 224 -512 192
WIRE -368 224 -512 224
WIRE 16 224 16 112
WIRE 16 224 -160 224
WIRE -640 272 -640 -48
WIRE -640 272 -800 272
WIRE -576 272 -576 176
WIRE -576 272 -640 272
WIRE -512 272 -512 224
WIRE -160 272 -160 224
WIRE -128 272 -160 272
WIRE 1024 272 928 272
WIRE -800 288 -800 272
WIRE 16 288 -32 288
WIRE 32 288 32 208
WIRE 32 288 16 288
WIRE 144 288 32 288
WIRE 272 288 224 288
WIRE 400 288 352 288
WIRE 928 288 928 272
WIRE 928 288 480 288
WIRE -368 304 -368 224
WIRE -128 304 -368 304
WIRE -576 352 -576 272
WIRE -560 352 -576 352
WIRE 16 352 16 288
WIRE -512 400 -512 368
WIRE -320 528 -320 512
WIRE -320 544 -320 528
WIRE -320 656 -320 624
FLAG -512 48 VPOS
FLAG -512 400 0
FLAG -80 64 VPOS
FLAG -80 240 VPOS
FLAG -80 160 0
FLAG -80 336 0
FLAG 16 416 0
FLAG 48 16 0
FLAG 448 80 VPOS
FLAG 448 144 0
FLAG 192 256 VPOS
FLAG 192 320 0
FLAG 320 256 VPOS
FLAG 320 320 0
FLAG 448 256 VPOS
FLAG 448 320 0
FLAG 1024 272 LIN
FLAG 1008 96 HIN
FLAG -800 368 0
FLAG -320 656 0
FLAG -320 528 VPOS
SYMBOL nmos -560 272 R0
SYMATTR InstName M1
SYMATTR Value NDC7002N
SYMBOL pmos -560 192 M180
SYMATTR InstName M2
SYMATTR Value Si1013
SYMBOL NAND -112 112 R0
SYMATTR InstName X1
SYMBOL NAND -112 288 R0
SYMATTR InstName X2
SYMBOL cap 0 352 R0
SYMATTR InstName C1
SYMATTR Value 200p
SYMBOL cap 64 80 R180
WINDOW 0 24 56 Left 2
WINDOW 3 24 8 Left 2
SYMATTR InstName C2
SYMATTR Value 200p
SYMBOL NOT 432 112 R0
SYMATTR InstName X5
SYMBOL NOT 176 288 R0
SYMATTR InstName X6
SYMBOL NOT 304 288 R0
SYMATTR InstName X7
SYMBOL NOT 432 288 R0
SYMATTR InstName X8
SYMBOL voltage -800 272 R0
WINDOW 123 0 0 Left 0
WINDOW 39 0 0 Left 0
SYMATTR InstName V1
SYMATTR Value PULSE(0 7 0 80n 80n 0.8u 5u)
SYMBOL voltage -320 528 R0
WINDOW 123 24 44 Left 2
WINDOW 39 24 72 Left 2
SYMATTR Value2 AC 1
SYMATTR SpiceLine Rser=100m
SYMATTR InstName Vg1
SYMATTR Value 7
TEXT -392 32 Left 2 ;Inversor
TEXT -832 680 Left 2 !.tran 0 1m 0
