Version 4
SHEET 1 1252 680
WIRE 1008 -144 496 -144
WIRE 864 -128 656 -128
WIRE 448 16 16 16
WIRE 656 48 656 -128
WIRE 864 48 864 32
WIRE -96 96 -256 96
WIRE 112 112 -208 112
WIRE 240 112 112 112
WIRE 352 112 288 112
WIRE 480 112 432 112
WIRE 608 112 608 64
WIRE 608 112 480 112
WIRE 112 128 112 112
WIRE 288 128 288 112
WIRE 240 144 240 112
WIRE -208 192 -208 112
WIRE 656 192 656 144
WIRE 656 192 608 192
WIRE 768 192 656 192
WIRE 112 224 112 208
WIRE 240 224 240 192
WIRE 240 224 112 224
WIRE 288 240 288 208
WIRE 240 272 240 224
WIRE 496 272 496 -144
WIRE 1008 272 1008 -144
WIRE 1008 272 496 272
WIRE 16 304 16 16
WIRE 448 304 448 16
WIRE 448 304 16 304
WIRE 768 304 768 192
WIRE 768 304 688 304
WIRE 864 304 768 304
WIRE -208 320 -208 272
WIRE 672 320 80 320
WIRE 240 352 240 272
WIRE 304 352 240 352
WIRE 416 352 304 352
WIRE 608 352 608 192
WIRE 608 352 496 352
WIRE 304 368 304 352
WIRE -256 384 -256 96
WIRE -96 384 -96 96
WIRE -96 384 -256 384
WIRE 688 400 688 304
WIRE 864 400 864 304
WIRE 864 400 688 400
WIRE 768 416 768 384
WIRE 80 512 80 320
WIRE 672 512 672 320
WIRE 672 512 80 512
WIRE 304 528 304 448
FLAG 288 240 0
FLAG 768 416 0
FLAG -208 320 0
FLAG 480 112 Va
FLAG -208 112 Vref
FLAG 240 272 vf
FLAG 304 528 0
FLAG 656 192 Vo
FLAG 864 48 0
SYMBOL e2 288 224 M180
WINDOW 0 24 101 Left 2
WINDOW 3 21 21 Left 2
SYMATTR InstName a
SYMATTR Value 1000
SYMBOL voltage -208 176 R0
WINDOW 123 0 0 Left 0
WINDOW 39 0 0 Left 0
WINDOW 3 66 94 Right 2
SYMATTR Value 1.65
SYMATTR InstName Vref
SYMBOL res 96 112 R0
SYMATTR InstName Rin
SYMATTR Value 100k
SYMBOL res 448 96 R90
WINDOW 0 0 56 VBottom 2
WINDOW 3 32 56 VTop 2
SYMATTR InstName R2
SYMATTR Value 0
SYMBOL res 752 288 R0
SYMATTR InstName RL
SYMATTR Value 2k
SYMBOL res 288 352 R0
SYMATTR InstName R1
SYMATTR Value 1Meg
SYMBOL res 512 336 R90
WINDOW 0 0 56 VBottom 2
WINDOW 3 32 56 VTop 2
SYMATTR InstName R3
SYMATTR Value 2Meg
SYMBOL pmos 608 144 M180
SYMATTR InstName M1
SYMATTR Value HAT1072H
SYMBOL voltage 864 -64 R0
WINDOW 123 0 0 Left 0
WINDOW 39 0 0 Left 0
SYMATTR InstName VREG
SYMATTR Value 6.3
SYMBOL voltage 864 -144 R0
WINDOW 123 0 0 Left 0
WINDOW 39 0 0 Left 0
SYMATTR InstName V1
SYMATTR Value 0
TEXT 864 560 Left 2 !.tran 0 1m 0 1u
TEXT -240 368 Left 2 ;Referencia
TEXT 104 488 Left 2 ;Realimentador
TEXT 24 24 Left 2 ;a
TEXT 504 -128 Left 2 ;Transistor de paso
TEXT 688 384 Left 2 ;Carga
TEXT 864 528 Left 2 !.step param RLOAD 10 2k 500
