Version 4
SHEET 1 26844 1184
WIRE 336 -544 240 -544
WIRE 432 -544 336 -544
WIRE 1264 -480 -512 -480
WIRE 240 -416 240 -544
WIRE 240 -416 64 -416
WIRE 2096 -336 1856 -336
WIRE 240 -304 240 -416
WIRE 432 -304 432 -544
WIRE 1904 -224 1632 -224
WIRE 1968 -224 1904 -224
WIRE 240 -176 240 -224
WIRE 432 -176 432 -224
WIRE 1824 -144 1312 -144
WIRE 336 -128 304 -128
WIRE 368 -128 336 -128
WIRE 1632 -48 1632 -224
WIRE 1632 -48 1584 -48
WIRE 1968 -48 1968 -64
WIRE 240 -32 240 -80
WIRE 336 -32 336 -128
WIRE 336 -32 240 -32
WIRE 64 -16 64 -416
WIRE 1520 -16 1408 -16
WIRE 432 0 432 -80
WIRE 1856 0 1856 -336
WIRE 2096 0 2096 -336
WIRE 2096 0 1856 0
WIRE 1632 16 1584 16
WIRE -544 48 -784 48
WIRE 240 64 240 -32
WIRE 432 64 432 0
WIRE -672 112 -736 112
WIRE -144 112 -592 112
WIRE 528 112 496 112
WIRE 1296 112 864 112
WIRE 1408 112 1408 -16
WIRE 1408 112 1296 112
WIRE 1632 112 1632 16
WIRE 1632 112 1600 112
WIRE 1520 160 1520 112
WIRE 1520 160 1472 160
WIRE 1520 176 1520 160
WIRE 1632 176 1632 112
WIRE -736 192 -736 112
WIRE 64 192 64 64
WIRE 176 192 64 192
WIRE 240 208 240 160
WIRE 336 208 240 208
WIRE 432 208 432 160
WIRE 432 208 336 208
WIRE 64 256 64 192
WIRE 336 256 336 208
WIRE 1520 272 1520 256
WIRE 176 304 176 192
WIRE 176 304 128 304
WIRE 272 304 176 304
WIRE -736 320 -736 272
WIRE 1408 320 1408 208
WIRE 1520 320 1408 320
WIRE 1632 320 1632 256
WIRE 1632 320 1520 320
WIRE 1664 320 1632 320
WIRE 1792 320 1728 320
WIRE 1792 336 1792 320
WIRE -784 384 -784 48
WIRE -544 384 -544 48
WIRE -544 384 -784 384
WIRE 1312 400 1312 -144
WIRE 1824 400 1824 -144
WIRE 1824 400 1312 400
WIRE 64 416 64 352
WIRE 336 416 336 352
WIRE 1776 416 1456 416
WIRE 1632 448 1632 320
WIRE 64 528 64 496
WIRE 336 528 336 496
WIRE 336 528 64 528
WIRE -512 544 -512 -480
WIRE 1264 544 1264 -480
WIRE 1264 544 -512 544
WIRE 1456 544 1456 416
WIRE 1776 544 1776 416
WIRE 1776 544 1456 544
WIRE 336 560 336 528
WIRE 1488 560 480 560
WIRE 1632 560 1632 528
WIRE 720 592 656 592
WIRE 944 592 720 592
WIRE 1408 592 1408 320
WIRE 1408 592 1024 592
WIRE 720 608 720 592
WIRE 720 768 720 688
WIRE 768 768 720 768
WIRE 768 784 768 768
WIRE 720 800 720 768
WIRE 896 864 816 864
WIRE 720 896 720 880
WIRE 768 896 768 880
WIRE 768 896 720 896
WIRE 896 896 896 864
WIRE 720 992 720 896
WIRE 896 992 896 976
WIRE 480 1024 480 560
WIRE 1488 1024 1488 560
WIRE 1488 1024 480 1024
FLAG 1632 560 0
FLAG -736 320 0
FLAG 1296 112 Va
FLAG -736 112 Vref
FLAG 720 992 0
FLAG 1520 320 Vo
FLAG 1968 -48 0
FLAG 1792 336 0
FLAG 336 560 0
FLAG 656 592 Vf
FLAG 336 -544 VREG
FLAG -144 112 Vi
FLAG 432 0 va
FLAG 864 112 va
FLAG 528 112 Vi
FLAG 176 112 Vf
FLAG 1904 -224 VREG
FLAG 896 992 0
FLAG 1520 272 0
SYMBOL voltage -736 176 R0
WINDOW 123 0 0 Left 0
WINDOW 39 0 0 Left 0
WINDOW 3 66 94 Right 2
SYMATTR Value 1.65
SYMATTR InstName Vref
SYMBOL res 1616 432 R0
SYMATTR InstName RL
SYMATTR Value {RLOAD}
SYMBOL res 704 592 R0
SYMATTR InstName R1
SYMATTR Value 10k
SYMBOL res 736 896 R180
WINDOW 0 36 76 Left 2
WINDOW 3 36 40 Left 2
SYMATTR InstName R3
SYMATTR Value 10k
SYMBOL voltage 1968 -160 R0
WINDOW 123 0 0 Left 0
WINDOW 39 0 0 Left 0
WINDOW 0 34 41 Left 2
SYMATTR InstName VREG
SYMATTR Value 6.3
SYMBOL voltage 1968 -240 R0
WINDOW 123 0 0 Left 0
WINDOW 39 0 0 Left 0
SYMATTR InstName V1
SYMATTR Value 0
SYMBOL cap 1728 304 R90
WINDOW 0 0 32 VBottom 2
WINDOW 3 32 32 VTop 2
SYMATTR InstName C2
SYMATTR Value 5µ
SYMBOL npn 176 64 R0
SYMATTR InstName Q1
SYMATTR Value BC548B
SYMBOL npn 496 64 M0
SYMATTR InstName Q2
SYMATTR Value BC548B
SYMBOL pnp 368 -80 M180
SYMATTR InstName Q3
SYMATTR Value BC558B
SYMBOL pnp 304 -80 R180
SYMATTR InstName Q4
SYMATTR Value BC558B
SYMBOL res 224 -320 R0
SYMATTR InstName R5
SYMATTR Value 220
SYMBOL res -576 96 R90
WINDOW 0 0 56 VBottom 2
WINDOW 3 32 56 VTop 2
SYMATTR InstName R6
SYMATTR Value 10
SYMBOL res 1040 576 R90
WINDOW 0 0 56 VBottom 2
WINDOW 3 32 56 VTop 2
SYMATTR InstName R7
SYMATTR Value 20k
SYMBOL voltage 896 880 R0
WINDOW 123 0 0 Left 0
WINDOW 39 0 0 Left 0
SYMATTR InstName SEL
SYMATTR Value 0
SYMBOL npn 272 256 R0
SYMATTR InstName Q5
SYMATTR Value BC548B
SYMBOL npn 128 256 M0
SYMATTR InstName Q6
SYMATTR Value BC548B
SYMBOL res 48 -32 R0
SYMATTR InstName R8
SYMATTR Value 54k
SYMBOL res 48 400 R0
SYMATTR InstName R2
SYMATTR Value 1k
SYMBOL res 320 400 R0
SYMATTR InstName R4
SYMATTR Value 1k
SYMBOL res 1616 160 R0
SYMATTR InstName Rs
SYMBOL res 1504 160 R0
SYMATTR InstName R10
SYMBOL res 1616 96 R90
WINDOW 0 0 56 VBottom 2
WINDOW 3 32 56 VTop 2
SYMATTR InstName R11
SYMBOL npn 1472 112 M0
SYMATTR InstName Q7
SYMATTR Value BC548B
SYMBOL res 416 -320 R0
SYMATTR InstName R12
SYMATTR Value 220
SYMBOL nmos 816 784 M0
WINDOW 0 -42 16 Left 2
WINDOW 3 -80 47 Left 2
SYMATTR InstName M2
SYMATTR Value 2N7000
SYMBOL AutoGenerated\\irf9520 1552 -16 R0
SYMATTR InstName U1
TEXT -768 368 Left 2 ;Referencia
TEXT 488 736 Left 2 ;Realimentador
TEXT -504 -464 Left 2 ;a
TEXT 1320 -128 Left 2 ;Transistor de paso
TEXT 1504 528 Left 2 ;Carga
TEXT 2032 816 Left 2 !.step param RLOAD 0.1 100 10
TEXT -1320 1112 Left 2 !.model BC558B PNP(Is=1.02f Xti=3 Eg=1.11 Vaf=52.31 Bf=306.5 Ise=10.27f Ne=1.764 Ikf=91.85m Nk=.5351 Xtb=1.5 Br=6.48 Isc=1.472f Nc=1.294 Ikr=.5584 Rc=1.086 Cjc=9.81p Mjc=.332 Vjc=.4865 Fc=.5 Cje=30p Mje=.3333 Vje=.5 Tr=10n Tf=611.6p Itf=1.373 Xtf=26.05 Vtf=10 Vceo=30 Icrating=100m mfg=Philips)
TEXT -1320 1136 Left 2 !.model BC548B NPN(Is=7.049f Xti=3 Eg=1.11 Vaf=62.79 Bf=374.6 Ise=68f Ne=1.576 Ikf=81.57m Nk=.4767 Xtb=1.5 Br=1 Isc=12.4f Nc=1.835 Ikr=3.924 Rc=.9747 Cjc=5.25p Mjc=.3147 Vjc=.5697 Fc=.5 Cje=11.5p Mje=.6715 Vje=.5 Tr=10n Tf=410.2p Itf=1.491 Xtf=40.06 Vtf=10 Vceo=30 Icrating=100m mfg=Philips)
TEXT 2040 840 Left 2 !.op
TEXT 2040 -312 Left 2 ;Buck
TEXT 2464 312 Left 2 !.inc sihf9520.lib
TEXT -1312 1168 Left 2 !.model 2N7000 VDMOS(Rg=3 Vto=3 Rd=0 Rs=.75 Rb=.14 Kp=.17 mtriode=1.25 Cgdmax=80p Cgdmin=12p Cgs=50p Cjo=50p Is=.04p mfg=Fairchild Vds=60 Ron=5 Qg=.223n)
