Version 4
SHEET 1 26844 1652
WIRE 272 -80 -464 -80
WIRE -192 112 -208 112
WIRE -128 112 -192 112
WIRE 1200 128 1040 128
WIRE 1776 176 1456 176
WIRE 1072 192 832 192
WIRE 1584 192 1360 192
WIRE 1632 192 1584 192
WIRE 1856 192 1632 192
WIRE 1632 208 1632 192
WIRE 1856 240 1856 192
WIRE 944 256 880 256
WIRE 1040 256 1040 128
WIRE 1040 256 1024 256
WIRE -464 288 -464 -80
WIRE 272 288 272 -80
WIRE 272 288 -464 288
WIRE 1584 288 1584 256
WIRE 1632 288 1584 288
WIRE 1456 304 1456 176
WIRE 1776 304 1776 176
WIRE 1776 304 1456 304
WIRE 1632 320 1632 288
WIRE 880 336 880 256
WIRE 880 464 880 416
WIRE 832 528 832 192
WIRE 1072 528 1072 192
WIRE 1072 528 832 528
WIRE 1344 640 1088 640
WIRE 1216 752 1152 752
WIRE 848 864 816 864
WIRE 896 864 848 864
WIRE 896 896 896 864
WIRE 1216 928 1216 912
WIRE 1088 976 1088 640
WIRE 1344 976 1344 640
WIRE 1344 976 1088 976
WIRE 896 992 896 976
FLAG 1216 928 0
FLAG 1152 752 VREG
FLAG 896 992 0
FLAG 1504 832 0
FLAG 1504 752 V-
FLAG 1744 832 0
FLAG 1744 752 VAR
FLAG -128 192 0
FLAG 1312 112 VREG
FLAG 1200 256 V-
FLAG 848 864 S
FLAG 1200 160 S
FLAG -192 112 E
FLAG 1200 224 E
FLAG 1632 320 0
FLAG 1856 320 0
FLAG 880 464 0
FLAG 1312 272 0
FLAG 1200 192 0
SYMBOL voltage 1216 816 R0
WINDOW 123 0 0 Left 0
WINDOW 39 0 0 Left 0
WINDOW 0 34 41 Left 2
SYMATTR InstName VREG
SYMATTR Value PULSE(0 6.35 .1 .0001 .0001 1)
SYMBOL voltage 1216 736 R0
WINDOW 123 0 0 Left 0
WINDOW 39 0 0 Left 0
SYMATTR InstName V1
SYMATTR Value 0
SYMBOL voltage 896 880 R0
WINDOW 123 0 0 Left 0
WINDOW 39 0 0 Left 0
SYMATTR InstName SEL1
SYMATTR Value PULSE(5 0 450m 0.0001 .0001 25m)
SYMBOL voltage 1504 736 R0
WINDOW 123 0 0 Left 0
WINDOW 39 0 0 Left 0
SYMATTR InstName V2
SYMATTR Value -5
SYMBOL voltage 1744 736 R0
WINDOW 123 0 0 Left 0
WINDOW 39 0 0 Left 0
SYMATTR InstName V3
SYMATTR Value PWL(200m 10 201m 10 205m 1m 206m 1m 207m 50)
SYMBOL voltage -128 96 R0
WINDOW 123 0 0 Left 0
WINDOW 39 0 0 Left 0
SYMATTR InstName V4
SYMATTR Value PULSE(5 0 .3 .001 .001 .1)
SYMBOL res 1616 192 R0
SYMATTR InstName RL1
SYMATTR Value {RLOAD}
SYMBOL cap 1600 256 R180
WINDOW 0 24 56 Left 2
WINDOW 3 24 8 Left 2
SYMATTR InstName C3
SYMATTR Value {CLOAD}
SYMBOL res 1840 224 R0
SYMATTR InstName R17
SYMATTR Value R=v(VAR)
SYMBOL voltage 880 320 R0
WINDOW 123 0 0 Left 0
WINDOW 39 0 0 Left 0
WINDOW 3 66 94 Right 2
SYMATTR Value 1.2
SYMATTR InstName Vref1
SYMBOL res 1040 240 R90
WINDOW 0 0 56 VBottom 2
WINDOW 3 32 56 VTop 2
SYMATTR InstName R18
SYMATTR Value 10
SYMBOL LDOA 1280 192 R0
SYMATTR InstName X1
TEXT 2032 816 Left 2 !.param RLOAD 100
TEXT 2392 528 Left 2 !.op
TEXT 1288 664 Left 2 ;Buck
TEXT 2056 584 Left 2 !.param CLOAD 15u
TEXT 2336 696 Left 2 !.tran 0 .5 0 .00005
TEXT -400 0 Left 2 ;Enable
TEXT 1504 288 Left 2 ;Carga
TEXT 848 512 Left 2 ;Referencia
