Version 4
SHEET 1 26844 1652
WIRE 272 -80 -464 -80
WIRE -192 112 -208 112
WIRE -128 112 -192 112
WIRE 1200 128 1040 128
WIRE 2064 144 1744 144
WIRE 1872 160 1536 160
WIRE 1920 160 1872 160
WIRE 2144 160 1920 160
WIRE 1920 176 1920 160
WIRE 1072 192 832 192
WIRE 2144 208 2144 160
WIRE 944 256 880 256
WIRE 1040 256 1040 128
WIRE 1040 256 1024 256
WIRE 1872 256 1872 224
WIRE 1920 256 1872 256
WIRE 1744 272 1744 144
WIRE 2064 272 2064 144
WIRE 2064 272 1744 272
WIRE -464 288 -464 -80
WIRE 272 288 272 -80
WIRE 272 288 -464 288
WIRE 1920 288 1920 256
WIRE 1600 304 1536 304
WIRE 880 336 880 256
WIRE 1600 368 1536 368
WIRE 880 464 880 416
WIRE 832 528 832 192
WIRE 1072 528 1072 192
WIRE 1072 528 832 528
WIRE 1344 640 1088 640
WIRE 1216 752 1152 752
WIRE 848 864 816 864
WIRE 896 864 848 864
WIRE 896 896 896 864
WIRE 1216 928 1216 912
WIRE 1088 976 1088 640
WIRE 1344 976 1344 640
WIRE 1344 976 1088 976
WIRE 896 992 896 976
FLAG 1216 928 0
FLAG 1152 752 VREG
FLAG 896 992 0
FLAG 1504 832 0
FLAG 1504 752 V-
FLAG 1744 832 0
FLAG 1744 752 VAR
FLAG -128 192 0
FLAG 1312 112 VREG
FLAG 1200 256 V-
FLAG 848 864 S
FLAG 1200 160 S
FLAG -192 112 E
FLAG 1200 224 E
FLAG 1920 288 0
FLAG 2144 288 0
FLAG 880 464 0
FLAG 1312 416 0
FLAG 1200 192 0
FLAG 1792 496 0
FLAG 1792 416 V_OU
FLAG 1536 272 V_OU
FLAG 1536 336 V_OU
SYMBOL voltage 1216 816 R0
WINDOW 123 0 0 Left 0
WINDOW 39 0 0 Left 0
WINDOW 0 34 41 Left 2
SYMATTR InstName VREG
SYMATTR Value PULSE(0 6.35 20m .0001 .0001 1)
SYMBOL voltage 1216 736 R0
WINDOW 123 0 0 Left 0
WINDOW 39 0 0 Left 0
SYMATTR InstName V1
SYMATTR Value 0
SYMBOL voltage 896 880 R0
WINDOW 123 0 0 Left 0
WINDOW 39 0 0 Left 0
SYMATTR InstName SEL1
SYMATTR Value PWL(500m 5 501m 0 1 0)
SYMBOL voltage 1504 736 R0
WINDOW 123 0 0 Left 0
WINDOW 39 0 0 Left 0
SYMATTR InstName V2
SYMATTR Value -5
SYMBOL voltage 1744 736 R0
WINDOW 123 0 0 Left 0
WINDOW 39 0 0 Left 0
SYMATTR InstName V3
SYMATTR Value PWL(25m 5 75m 250 250m 250 270m 0.01 350m 0.01 400m 15 475m 15 500m 5 525m 5 575m 250 750m 250 770m 0.01 850m 0.01 900m 15 975m 15 1 5)
SYMBOL voltage -128 96 R0
WINDOW 123 0 0 Left 0
WINDOW 39 0 0 Left 0
SYMATTR InstName V4
SYMATTR Value PWL(125m 5 126m 0 150m 0 175m 5 625m 5 626m 0 650m 0 675m 5)
SYMBOL res 1904 160 R0
SYMATTR InstName RL1
SYMATTR Value {RLOAD}
SYMBOL cap 1888 224 R180
WINDOW 0 24 56 Left 2
WINDOW 3 24 8 Left 2
SYMATTR InstName C3
SYMATTR Value {CLOAD}
SYMBOL res 2128 192 R0
SYMATTR InstName R17
SYMATTR Value R=v(VAR)
SYMBOL voltage 880 320 R0
WINDOW 123 0 0 Left 0
WINDOW 39 0 0 Left 0
WINDOW 3 66 94 Right 2
SYMATTR Value 1.2
SYMATTR InstName Vref1
SYMBOL res 1040 240 R90
WINDOW 0 0 56 VBottom 2
WINDOW 3 32 56 VTop 2
SYMATTR InstName R18
SYMATTR Value 10
SYMBOL LDOA_with_OVLO 1280 192 R0
SYMATTR InstName X2
SYMBOL voltage 1792 400 R0
WINDOW 123 0 0 Left 0
WINDOW 39 0 0 Left 0
SYMATTR InstName V5
SYMATTR Value PULSE(12 0 1p 1 1p 1p)
TEXT 2032 816 Left 2 !.param RLOAD 100k
TEXT 2392 528 Left 2 !.op
TEXT 1288 664 Left 2 ;Buck
TEXT 2056 584 Left 2 !.param CLOAD 15u
TEXT 2336 696 Left 2 !.tran 0 1 0 .00005
TEXT -400 0 Left 2 ;Enable
TEXT 1792 256 Left 2 ;Carga
TEXT 848 512 Left 2 ;Referencia
