Version 4
SHEET 1 26844 1652
WIRE 1296 -912 1280 -912
WIRE 1296 -896 1296 -912
WIRE 1200 -800 1200 -912
WIRE 1296 -800 1296 -832
WIRE 1296 -800 1280 -800
WIRE 1200 -752 1200 -800
WIRE 1200 -752 1184 -752
WIRE 1200 -720 1200 -752
WIRE 1216 -720 1200 -720
WIRE 288 -704 288 -800
WIRE 1296 -704 1296 -800
WIRE 1296 -704 1280 -704
WIRE 1328 -704 1296 -704
WIRE 416 -688 336 -688
WIRE 704 -688 704 -784
WIRE 1216 -688 1200 -688
WIRE 832 -672 752 -672
WIRE 1200 -672 1200 -688
WIRE 1200 -672 1184 -672
WIRE 1200 -640 1200 -672
WIRE 288 -624 256 -624
WIRE 704 -608 672 -608
WIRE -144 -448 -240 -448
WIRE -48 -448 -144 -448
WIRE 704 -448 704 -592
WIRE 704 -448 352 -448
WIRE -656 -432 -736 -432
WIRE -240 -416 -240 -448
WIRE -240 -416 -416 -416
WIRE -240 -400 -240 -416
WIRE -48 -400 -48 -448
WIRE -656 -384 -720 -384
WIRE -656 -336 -688 -336
WIRE 1488 -336 1392 -336
WIRE -656 -288 -704 -288
WIRE -240 -240 -240 -320
WIRE -48 -240 -48 -320
WIRE 1312 -240 1312 -336
WIRE 1360 -240 1312 -240
WIRE 1488 -224 1488 -336
WIRE 1488 -224 1424 -224
WIRE 1600 -224 1488 -224
WIRE 1632 -224 1600 -224
WIRE 848 -208 784 -208
WIRE 1008 -208 928 -208
WIRE 1184 -208 1008 -208
WIRE 1312 -208 1264 -208
WIRE 1360 -208 1312 -208
WIRE -160 -192 -176 -192
WIRE -112 -192 -160 -192
WIRE 1008 -176 1008 -208
WIRE -416 -128 -416 -416
WIRE 592 -128 592 -176
WIRE 592 -128 544 -128
WIRE -240 -112 -240 -144
WIRE -160 -112 -160 -192
WIRE -160 -112 -240 -112
WIRE -48 -96 -48 -144
WIRE 288 -96 288 -608
WIRE 288 -96 -48 -96
WIRE 352 -96 352 -448
WIRE 352 -96 288 -96
WIRE 432 -96 352 -96
WIRE 480 -96 432 -96
WIRE 1200 -96 1136 -96
WIRE 1312 -96 1312 -208
WIRE 1312 -96 1280 -96
WIRE 1008 -80 1008 -96
WIRE 592 -64 544 -64
WIRE -240 -48 -240 -112
WIRE -48 -48 -48 -96
WIRE 48 0 16 0
WIRE 432 16 432 -96
WIRE 464 16 432 16
WIRE 592 16 592 -64
WIRE 592 16 528 16
WIRE -416 80 -416 -48
WIRE -304 80 -416 80
WIRE -240 96 -240 48
WIRE -224 96 -240 96
WIRE -128 96 -144 96
WIRE -48 96 -48 48
WIRE 944 128 928 128
WIRE -416 144 -416 80
WIRE -144 144 -144 96
WIRE 592 144 592 16
WIRE 704 144 592 144
WIRE 592 160 592 144
WIRE 752 176 672 176
WIRE 848 176 848 128
WIRE 848 176 832 176
WIRE -304 192 -304 80
WIRE -304 192 -352 192
WIRE -208 192 -304 192
WIRE 848 208 848 176
WIRE 864 208 848 208
WIRE 944 224 944 128
WIRE 944 224 928 224
WIRE 976 224 944 224
WIRE 864 240 848 240
WIRE 704 256 704 144
WIRE 752 256 704 256
WIRE 848 256 848 240
WIRE 848 256 832 256
WIRE 240 272 208 272
WIRE 400 272 240 272
WIRE 592 272 592 240
WIRE 592 272 480 272
WIRE 672 272 672 176
WIRE 672 272 592 272
WIRE 240 288 240 272
WIRE 848 288 848 256
WIRE -416 304 -416 240
WIRE -144 304 -144 240
WIRE -416 416 -416 384
WIRE -144 416 -144 384
WIRE -144 416 -416 416
WIRE -96 416 -144 416
WIRE 240 448 240 368
WIRE 288 448 240 448
WIRE 288 464 288 448
WIRE 240 480 240 448
WIRE 592 496 592 272
WIRE 416 544 336 544
WIRE 240 576 240 560
WIRE 288 576 288 560
WIRE 288 576 240 576
WIRE 416 576 416 544
WIRE 240 624 240 576
FLAG 704 -784 VREG
FLAG 832 -672 Vact
FLAG 976 224 Vsens
FLAG 1600 -224 Vref2
FLAG 784 -208 Vref
FLAG 1136 -96 Vf
FLAG 1232 -336 0
FLAG 1328 -704 Vact
FLAG 1104 -672 Vref2
FLAG 1104 -752 Vsens
FLAG 208 272 Vf
FLAG -144 -448 VREG
FLAG -304 0 Vf
FLAG 896 192 VREG
FLAG -656 -432 V-
FLAG 896 256 V-
FLAG 1248 -736 VREG
FLAG 1248 -672 V-
FLAG 1392 -256 VREG
FLAG 1392 -192 V-
FLAG 288 -800 VREG
FLAG 416 -688 ENLDOB
IOPIN 416 -688 In
FLAG -704 -288 VREG
IOPIN -704 -288 In
FLAG -736 -432 V-
IOPIN -736 -432 In
FLAG -720 -384 Vref
IOPIN -720 -384 In
FLAG 592 496 VB
IOPIN 592 496 Out
FLAG 416 576 SELB
IOPIN 416 576 In
FLAG 240 624 GND
IOPIN 240 624 BiDir
FLAG 848 368 GND
IOPIN 848 368 BiDir
FLAG 1008 -80 GND
IOPIN 1008 -80 BiDir
FLAG 1200 -560 GND
IOPIN 1200 -560 BiDir
FLAG -96 416 GND
IOPIN -96 416 BiDir
FLAG -688 -336 VPOSA
IOPIN -688 -336 In
FLAG -656 -336 Vposa
FLAG -656 -384 Vref
FLAG 48 0 Vref
FLAG -656 -288 VREG
FLAG 592 -176 VREG
SYMBOL AutoGenerated\\irf9520 512 -96 R0
SYMATTR InstName U1
SYMBOL pmos 752 -592 R180
SYMATTR InstName M1
SYMATTR Value FDC5614P
SYMBOL cap 528 0 R90
WINDOW 0 0 32 VBottom 2
WINDOW 3 32 32 VTop 2
SYMATTR InstName C1
SYMATTR Value 100n
SYMBOL res 1184 -896 R270
WINDOW 0 32 56 VTop 2
WINDOW 3 0 56 VBottom 2
SYMATTR InstName R19
SYMATTR Value 665
SYMBOL cap 1312 -832 R180
WINDOW 0 24 56 Left 2
WINDOW 3 24 8 Left 2
SYMATTR InstName C4
SYMATTR Value 22n
SYMBOL res 224 272 R0
SYMATTR InstName R20
SYMATTR Value 2.21k
SYMBOL res 256 576 R180
WINDOW 0 36 76 Left 2
WINDOW 3 36 40 Left 2
SYMATTR InstName R21
SYMATTR Value 1.82k
SYMBOL res 496 256 R90
WINDOW 0 0 56 VBottom 2
WINDOW 3 32 56 VTop 2
SYMATTR InstName R28
SYMATTR Value 6.98k
SYMBOL nmos 336 464 M0
WINDOW 0 -42 16 Left 2
WINDOW 3 -80 47 Left 2
SYMATTR InstName M3
SYMATTR Value 2N7000
SYMBOL res 576 144 R0
SYMATTR InstName Rs1
SYMATTR Value .1
SYMBOL res 848 160 R90
WINDOW 0 0 56 VBottom 2
WINDOW 3 32 56 VTop 2
SYMATTR InstName R1
SYMATTR Value 11k
SYMBOL res 848 240 R90
WINDOW 0 0 56 VBottom 2
WINDOW 3 32 56 VTop 2
SYMATTR InstName R3
SYMATTR Value 11k
SYMBOL res 944 112 R90
WINDOW 0 0 56 VBottom 2
WINDOW 3 32 56 VTop 2
SYMATTR InstName R7
SYMATTR Value 243k
SYMBOL res 864 384 R180
WINDOW 0 36 76 Left 2
WINDOW 3 36 40 Left 2
SYMATTR InstName R29
SYMATTR Value 243k
SYMBOL res 992 -192 R0
SYMATTR InstName R30
SYMATTR Value 4.02k
SYMBOL res 944 -224 R90
WINDOW 0 0 56 VBottom 2
WINDOW 3 32 56 VTop 2
SYMATTR InstName R31
SYMATTR Value 6.98k
SYMBOL res 1296 -112 R90
WINDOW 0 0 56 VBottom 2
WINDOW 3 32 56 VTop 2
SYMATTR InstName R32
SYMATTR Value 100k
SYMBOL res 1280 -224 R90
WINDOW 0 0 56 VBottom 2
WINDOW 3 32 56 VTop 2
SYMATTR InstName R33
SYMATTR Value 100k
SYMBOL res 1328 -352 R90
WINDOW 0 0 56 VBottom 2
WINDOW 3 32 56 VTop 2
SYMATTR InstName R34
SYMATTR Value 100k
SYMBOL res 1408 -352 R90
WINDOW 0 0 56 VBottom 2
WINDOW 3 32 56 VTop 2
SYMATTR InstName R35
SYMATTR Value 100k
SYMBOL res 1200 -768 R90
WINDOW 0 0 56 VBottom 2
WINDOW 3 32 56 VTop 2
SYMATTR InstName R36
SYMATTR Value 1k
SYMBOL res 1200 -688 R90
WINDOW 0 0 56 VBottom 2
WINDOW 3 32 56 VTop 2
SYMATTR InstName R37
SYMATTR Value 1k
SYMBOL res 1296 -816 R90
WINDOW 0 0 56 VBottom 2
WINDOW 3 32 56 VTop 2
SYMATTR InstName R38
SYMATTR Value 150k
SYMBOL res 1216 -544 R180
WINDOW 0 36 76 Left 2
WINDOW 3 36 40 Left 2
SYMATTR InstName R39
SYMATTR Value 150k
SYMBOL npn -304 -48 R0
SYMATTR InstName Q1
SYMATTR Value BC547C
SYMBOL npn 16 -48 M0
SYMATTR InstName Q2
SYMATTR Value BC547C
SYMBOL res -256 -416 R0
SYMATTR InstName R2
SYMATTR Value 100
SYMBOL npn -208 144 R0
SYMATTR InstName Q3
SYMATTR Value BC547C
SYMBOL npn -352 144 M0
SYMATTR InstName Q4
SYMATTR Value BC547C
SYMBOL res -432 -144 R0
SYMATTR InstName R4
SYMATTR Value 5.36k
SYMBOL res -432 288 R0
SYMATTR InstName R5
SYMATTR Value 100
SYMBOL res -160 288 R0
SYMATTR InstName R8
SYMATTR Value 100
SYMBOL res -64 -416 R0
SYMATTR InstName R10
SYMATTR Value 100
SYMBOL pnp -112 -144 M180
SYMATTR InstName Q5
SYMATTR Value BC557C
SYMBOL pnp -176 -144 R180
SYMATTR InstName Q6
SYMATTR Value BC557C
SYMBOL res -32 80 R90
WINDOW 0 0 56 VBottom 2
WINDOW 3 32 56 VTop 2
SYMATTR InstName R11
SYMATTR Value 24.9
SYMBOL res -128 80 R90
WINDOW 0 0 56 VBottom 2
WINDOW 3 32 56 VTop 2
SYMATTR InstName R12
SYMATTR Value 24.9
SYMBOL TL081 896 224 R0
SYMATTR InstName U2
SYMBOL TL081 1248 -704 R0
SYMATTR InstName U3
SYMBOL TL081 1392 -224 R0
SYMATTR InstName U5
SYMBOL pmos 336 -608 R180
SYMATTR InstName M2
SYMATTR Value FDC5614P
TEXT -800 -168 Left 2 !.param RLOAD 100
TEXT -1072 784 Left 2 !.model BC558B PNP(Is=1.02f Xti=3 Eg=1.11 Vaf=52.31 Bf=306.5 Ise=10.27f Ne=1.764 Ikf=91.85m Nk=.5351 Xtb=1.5 Br=6.48 Isc=1.472f Nc=1.294 Ikr=.5584 Rc=1.086 Cjc=9.81p Mjc=.332 Vjc=.4865 Fc=.5 Cje=30p Mje=.3333 Vje=.5 Tr=10n Tf=611.6p Itf=1.373 Xtf=26.05 Vtf=10 Vceo=30 Icrating=100m mfg=Philips)
TEXT -1072 808 Left 2 !.model BC548B NPN(Is=7.049f Xti=3 Eg=1.11 Vaf=62.79 Bf=374.6 Ise=68f Ne=1.576 Ikf=81.57m Nk=.4767 Xtb=1.5 Br=1 Isc=12.4f Nc=1.835 Ikr=3.924 Rc=.9747 Cjc=5.25p Mjc=.3147 Vjc=.5697 Fc=.5 Cje=11.5p Mje=.6715 Vje=.5 Tr=10n Tf=410.2p Itf=1.491 Xtf=40.06 Vtf=10 Vceo=30 Icrating=100m mfg=Philips)
TEXT -800 -40 Left 2 !.inc sihf9520.lib
TEXT -1072 832 Left 2 !.model 2N7000 VDMOS(Rg=3 Vto=3 Rd=0 Rs=.75 Rb=.14 Kp=.17 mtriode=1.25 Cgdmax=80p Cgdmin=12p Cgs=50p Cjo=50p Is=.04p mfg=Fairchild Vds=60 Ron=5 Qg=.223n)
TEXT -800 -136 Left 2 !.param CLOAD 15u
TEXT -792 -464 Left 2 ;Referencias
TEXT -496 -464 Left 2 ;Amplificador de error
TEXT 168 -848 Left 2 ;Enable
TEXT 584 -824 Left 2 ;Actuador
TEXT 424 -240 Left 2 ;Transistor
TEXT 424 -216 Left 2 ;de paso
TEXT 168 240 Left 2 ;Realimentador
TEXT 600 96 Left 2 ;Sensado de corriente
TEXT 736 -368 Left 2 ;Sumador
TEXT 1040 -944 Left 2 ;Amplificador
TEXT 1040 -920 Left 2 ;de error
TEXT -1072 760 Left 2 ;Modelos
TEXT -792 -200 Left 2 ;Parámetros
TEXT -792 -64 Left 2 ;Librerías
LINE Normal -576 -480 -800 -480 2
LINE Normal -576 -272 -576 -448 2
LINE Normal -800 -272 -576 -272 2
LINE Normal -800 -448 -800 -272 2
LINE Normal 128 -480 -512 -480 3
LINE Normal 128 448 128 -480 3
LINE Normal -512 448 128 448 3
LINE Normal -512 -480 -512 448 3
LINE Normal 160 -864 160 -480 1
LINE Normal 544 -864 160 -864 1
LINE Normal 544 -480 544 -864 1
LINE Normal 160 -480 544 -480 1
LINE Normal 896 -848 576 -848 1
LINE Normal 896 -496 896 -848 1
LINE Normal 576 -496 896 -496 1
LINE Normal 576 -848 576 -496 1
LINE Normal -800 -480 -800 -448 2
LINE Normal -576 -448 -576 -480 2
LINE Normal 608 64 416 64 1
LINE Normal 608 -256 608 64 1
LINE Normal 416 -256 608 -256 1
LINE Normal 416 64 416 -256 1
LINE Normal 160 224 544 224 1
LINE Normal 160 720 160 224 1
LINE Normal 544 720 160 720 1
LINE Normal 544 224 544 720 1
LINE Normal 560 80 896 80 1
LINE Normal 560 464 560 80 1
LINE Normal 1056 464 560 464 1
LINE Normal 1056 80 1056 464 1
LINE Normal 896 80 1056 80 1
LINE Normal 720 -384 720 -208 1
LINE Normal 1648 -384 720 -384 1
LINE Normal 1648 16 1648 -384 1
LINE Normal 720 16 1648 16 1
LINE Normal 720 -208 720 16 1
LINE Normal 1024 -960 1024 -752 3
LINE Normal 1392 -960 1024 -960 3
LINE Normal 1392 -464 1392 -960 3
LINE Normal 1024 -464 1392 -464 3
LINE Normal 1024 -752 1024 -464 3
