Version 4
SHEET 1 26844 1652
WIRE 272 -80 -464 -80
WIRE -192 112 -208 112
WIRE -128 112 -192 112
WIRE 1136 128 1040 128
WIRE 1776 176 1456 176
WIRE 1072 192 832 192
WIRE 1584 192 1424 192
WIRE 1632 192 1584 192
WIRE 1856 192 1632 192
WIRE 1408 208 1392 208
WIRE 1632 208 1632 192
WIRE 1424 240 1424 192
WIRE 1424 240 1392 240
WIRE 1856 240 1856 192
WIRE 944 256 880 256
WIRE 1040 256 1040 128
WIRE 1040 256 1024 256
WIRE -464 288 -464 -80
WIRE 272 288 272 -80
WIRE 272 288 -464 288
WIRE 1584 288 1584 256
WIRE 1632 288 1584 288
WIRE 1456 304 1456 176
WIRE 1776 304 1776 176
WIRE 1776 304 1456 304
WIRE 1632 320 1632 288
WIRE 880 336 880 256
WIRE 880 464 880 416
WIRE 832 528 832 192
WIRE 1072 528 1072 192
WIRE 1072 528 832 528
WIRE -160 624 -224 624
WIRE -32 624 -80 624
WIRE 80 624 -32 624
WIRE 176 624 80 624
WIRE 1344 640 1088 640
WIRE 80 656 80 624
WIRE -224 736 -224 624
WIRE -32 752 -32 624
WIRE 1216 752 1152 752
WIRE 80 784 80 736
WIRE 80 784 0 784
WIRE 80 816 80 784
WIRE 848 864 816 864
WIRE 896 864 848 864
WIRE -224 896 -224 816
WIRE -32 896 -32 816
WIRE -32 896 -224 896
WIRE 80 896 -32 896
WIRE 896 896 896 864
WIRE 1216 928 1216 912
WIRE -224 944 -224 896
WIRE 1088 976 1088 640
WIRE 1344 976 1344 640
WIRE 1344 976 1088 976
WIRE 896 992 896 976
FLAG 1216 928 0
FLAG 1152 752 VREG
FLAG 896 992 0
FLAG 1504 832 0
FLAG 1504 752 V-
FLAG 1744 832 0
FLAG 1744 752 VAR
FLAG -128 192 0
FLAG 1264 96 VREG
FLAG 1136 304 V-
FLAG 848 864 S
FLAG 1136 160 S
FLAG -192 112 E
FLAG 1136 256 E
FLAG 1632 320 0
FLAG 1856 320 0
FLAG 880 464 0
FLAG 1264 336 0
FLAG 1136 208 Vposa
FLAG -224 944 0
FLAG 176 624 Vposa
SYMBOL voltage 1216 816 R0
WINDOW 123 0 0 Left 0
WINDOW 39 0 0 Left 0
WINDOW 0 34 41 Left 2
SYMATTR InstName VREG
SYMATTR Value PULSE(0 6.35 5m .00001 .00001 1)
SYMBOL voltage 1216 736 R0
WINDOW 123 0 0 Left 0
WINDOW 39 0 0 Left 0
SYMATTR InstName V1
SYMATTR Value 0
SYMBOL voltage 896 880 R0
WINDOW 123 0 0 Left 0
WINDOW 39 0 0 Left 0
SYMATTR InstName SEL1
SYMATTR Value PWL(500m 5 501m 0 1 0)
SYMBOL voltage 1504 736 R0
WINDOW 123 0 0 Left 0
WINDOW 39 0 0 Left 0
SYMATTR InstName V2
SYMATTR Value -5
SYMBOL voltage 1744 736 R0
WINDOW 123 0 0 Left 0
WINDOW 39 0 0 Left 0
SYMATTR InstName V3
SYMATTR Value PWL(25m 5 75m 250 250m 250 270m 0.01 350m 0.01 400m 15 475m 15 500m 5 525m 5 575m 250 750m 250 770m 0.01 850m 0.01 900m 15 975m 15 1 5)
SYMBOL voltage -128 96 R0
WINDOW 123 0 0 Left 0
WINDOW 39 0 0 Left 0
SYMATTR InstName V4
SYMATTR Value PWL(125m 5 126m 0 150m 0 175m 5 625m 5 626m 0 650m 0 675m 5)
SYMBOL res 1616 192 R0
SYMATTR InstName RL1
SYMATTR Value {RLOAD}
SYMBOL cap 1600 256 R180
WINDOW 0 24 56 Left 2
WINDOW 3 24 8 Left 2
SYMATTR InstName C3
SYMATTR Value {CLOAD}
SYMBOL res 1840 224 R0
SYMATTR InstName R17
SYMATTR Value R=v(VAR)
SYMBOL voltage 880 320 R0
WINDOW 123 0 0 Left 0
WINDOW 39 0 0 Left 0
WINDOW 3 66 94 Right 2
SYMATTR Value 1.2
SYMATTR InstName Vref1
SYMBOL res 1040 240 R90
WINDOW 0 0 56 VBottom 2
WINDOW 3 32 56 VTop 2
SYMATTR InstName R18
SYMATTR Value 10
SYMBOL LDOB 1264 208 R0
SYMATTR InstName X2
SYMBOL voltage -224 720 R0
WINDOW 123 0 0 Left 0
WINDOW 39 0 0 Left 0
SYMATTR InstName V5
SYMATTR Value 5
SYMBOL res -64 608 R90
WINDOW 0 0 56 VBottom 2
WINDOW 3 32 56 VTop 2
SYMATTR InstName R1
SYMATTR Value 3.6k
SYMBOL References\\LT1009 -32 784 R0
SYMATTR InstName U1
SYMBOL res 64 640 R0
SYMATTR InstName R2
SYMATTR Value 5k
SYMBOL res 64 800 R0
SYMATTR InstName R3
SYMATTR Value 5k
TEXT 2032 816 Left 2 !.param RLOAD=100k
TEXT 2392 528 Left 2 !.op
TEXT 1288 664 Left 2 ;Buck
TEXT 2056 584 Left 2 !.param CLOAD 15u
TEXT 2336 696 Left 2 !.tran 0 1 0 .00005
TEXT -400 0 Left 2 ;Enable
TEXT 1504 288 Left 2 ;Carga
TEXT 848 512 Left 2 ;Referencia
