Version 4
SHEET 1 26844 1652
WIRE 288 -704 288 -800
WIRE 416 -688 336 -688
WIRE 704 -688 704 -784
WIRE 832 -672 752 -672
WIRE 288 -624 256 -624
WIRE -144 -448 -240 -448
WIRE -48 -448 -144 -448
WIRE 704 -448 704 -592
WIRE 704 -448 352 -448
WIRE -656 -432 -736 -432
WIRE -240 -416 -240 -448
WIRE -240 -416 -416 -416
WIRE -240 -400 -240 -416
WIRE -48 -400 -48 -448
WIRE 976 -400 928 -400
WIRE 1600 -400 1552 -400
WIRE -656 -384 -720 -384
WIRE 976 -384 976 -400
WIRE 1600 -384 1600 -400
WIRE -656 -336 -688 -336
WIRE 1696 -304 1648 -304
WIRE -656 -288 -704 -288
WIRE 1216 -288 1136 -288
WIRE 1600 -288 1600 -304
WIRE 1648 -288 1648 -304
WIRE 1648 -288 1600 -288
WIRE 1840 -288 1760 -288
WIRE 976 -272 976 -304
WIRE 1056 -272 976 -272
WIRE 1072 -272 1056 -272
WIRE 1696 -272 1680 -272
WIRE 976 -256 976 -272
WIRE 1056 -256 1056 -272
WIRE -240 -240 -240 -320
WIRE -48 -240 -48 -320
WIRE -160 -192 -176 -192
WIRE -112 -192 -160 -192
WIRE 1600 -176 1600 -208
WIRE 1680 -176 1600 -176
WIRE -416 -128 -416 -416
WIRE 592 -128 592 -176
WIRE 592 -128 544 -128
WIRE -240 -112 -240 -144
WIRE -160 -112 -160 -192
WIRE -160 -112 -240 -112
WIRE -48 -96 -48 -144
WIRE 288 -96 288 -608
WIRE 288 -96 -48 -96
WIRE 352 -96 352 -448
WIRE 352 -96 288 -96
WIRE 432 -96 352 -96
WIRE 480 -96 432 -96
WIRE 1216 -96 1216 -288
WIRE 1216 -96 1104 -96
WIRE 1840 -96 1840 -288
WIRE 1840 -96 1728 -96
WIRE 976 -80 976 -176
WIRE 1056 -80 976 -80
WIRE 1600 -80 1600 -96
WIRE 1680 -80 1600 -80
WIRE 592 -64 544 -64
WIRE 976 -64 976 -80
WIRE 1600 -64 1600 -80
WIRE -240 -48 -240 -112
WIRE -48 -48 -48 -96
WIRE 48 0 16 0
WIRE 432 16 432 -96
WIRE 464 16 432 16
WIRE 592 16 592 -64
WIRE 592 16 528 16
WIRE -416 80 -416 -48
WIRE -304 80 -416 80
WIRE -240 96 -240 48
WIRE -224 96 -240 96
WIRE -128 96 -144 96
WIRE -48 96 -48 48
WIRE -416 144 -416 80
WIRE -144 144 -144 96
WIRE 944 144 928 144
WIRE 1872 144 1776 144
WIRE 2336 144 2320 144
WIRE 592 160 592 16
WIRE 704 160 592 160
WIRE 2336 160 2336 144
WIRE 592 176 592 160
WIRE -304 192 -304 80
WIRE -304 192 -352 192
WIRE -208 192 -304 192
WIRE 752 192 672 192
WIRE 848 192 848 144
WIRE 848 192 832 192
WIRE 848 224 848 192
WIRE 864 224 848 224
WIRE 944 240 944 144
WIRE 944 240 928 240
WIRE 976 240 944 240
WIRE 1696 240 1696 144
WIRE 1744 240 1696 240
WIRE 864 256 848 256
WIRE 1872 256 1872 144
WIRE 1872 256 1808 256
WIRE 1984 256 1872 256
WIRE 2016 256 1984 256
WIRE 2240 256 2240 144
WIRE 2336 256 2336 224
WIRE 2336 256 2320 256
WIRE 704 272 704 160
WIRE 752 272 704 272
WIRE 848 272 848 256
WIRE 848 272 832 272
WIRE 1232 272 1168 272
WIRE 1392 272 1312 272
WIRE 1568 272 1392 272
WIRE 1696 272 1648 272
WIRE 1744 272 1696 272
WIRE 240 288 208 288
WIRE 400 288 240 288
WIRE 592 288 592 256
WIRE 592 288 480 288
WIRE 672 288 672 192
WIRE 672 288 592 288
WIRE -416 304 -416 240
WIRE -144 304 -144 240
WIRE 240 304 240 288
WIRE 848 304 848 272
WIRE 1392 304 1392 272
WIRE 2240 304 2240 256
WIRE 2240 304 2224 304
WIRE 2240 336 2240 304
WIRE 2256 336 2240 336
WIRE 2336 352 2336 256
WIRE 2336 352 2320 352
WIRE 2368 352 2336 352
WIRE 2256 368 2240 368
WIRE 1584 384 1520 384
WIRE 1696 384 1696 272
WIRE 1696 384 1664 384
WIRE 2240 384 2240 368
WIRE 2240 384 2224 384
WIRE 1392 400 1392 384
WIRE -416 416 -416 384
WIRE -144 416 -144 384
WIRE -144 416 -416 416
WIRE -96 416 -144 416
WIRE 2240 416 2240 384
WIRE 240 464 240 384
WIRE 288 464 240 464
WIRE 288 480 288 464
WIRE 240 496 240 464
WIRE 416 560 336 560
WIRE 240 592 240 576
WIRE 288 592 288 576
WIRE 288 592 240 592
WIRE 416 592 416 560
WIRE 240 640 240 592
WIRE 592 656 592 288
FLAG 704 -784 VREG
FLAG 832 -672 Vact
FLAG 976 240 Vsens
FLAG 1984 256 Vref2
FLAG 1168 272 Vref
FLAG 1520 384 Vf
FLAG 1616 144 0
FLAG 2368 352 Vact
FLAG 2144 384 Vref2
FLAG 2144 304 Vsens
FLAG 208 288 Vf
FLAG -144 -448 VREG
FLAG -304 0 Vf
FLAG 896 208 VREG
FLAG -656 -432 V-
FLAG 896 272 V-
FLAG 2288 320 VREG
FLAG 2288 384 V-
FLAG 1776 224 VREG
FLAG 1776 288 V-
FLAG 288 -800 VREG
FLAG 416 -688 ENLDOB
IOPIN 416 -688 In
FLAG -704 -288 VREG
IOPIN -704 -288 In
FLAG -736 -432 V-
IOPIN -736 -432 In
FLAG -720 -384 Vref
IOPIN -720 -384 In
FLAG 592 656 VB
IOPIN 592 656 Out
FLAG 416 592 SELB
IOPIN 416 592 In
FLAG 240 640 GND
IOPIN 240 640 BiDir
FLAG 848 384 GND
IOPIN 848 384 BiDir
FLAG 1392 400 GND
IOPIN 1392 400 BiDir
FLAG 2240 496 GND
IOPIN 2240 496 BiDir
FLAG -96 416 GND
IOPIN -96 416 BiDir
FLAG -688 -336 VPOSA
IOPIN -688 -336 In
FLAG -656 -336 Vposa
FLAG -656 -384 Vref
FLAG 48 0 Vref
FLAG -656 -288 VREG
FLAG 592 -176 VREG
FLAG 1104 -320 VREG
FLAG 928 -400 Vposa
FLAG 976 -64 GND
IOPIN 976 -64 BiDir
FLAG 1216 -288 UVLO_OUT
IOPIN 1216 -288 In
FLAG 1104 -256 V-
FLAG 1072 -304 Vf
FLAG 1728 -320 VREG
FLAG 1552 -400 Vposa
FLAG 1600 -64 GND
IOPIN 1600 -64 BiDir
FLAG 1840 -288 OVLO_OUT
IOPIN 1840 -288 In
FLAG 1728 -256 V-
FLAG 1680 -272 Vf
SYMBOL AutoGenerated\\irf9520 512 -96 R0
SYMATTR InstName U1
SYMBOL pmos 752 -592 R180
SYMATTR InstName M1
SYMATTR Value FDC5614P
SYMBOL cap 528 0 R90
WINDOW 0 0 32 VBottom 2
WINDOW 3 32 32 VTop 2
SYMATTR InstName C1
SYMATTR Value 100n
SYMBOL res 2224 160 R270
WINDOW 0 32 56 VTop 2
WINDOW 3 0 56 VBottom 2
SYMATTR InstName R19
SYMATTR Value 665
SYMBOL cap 2352 224 R180
WINDOW 0 24 56 Left 2
WINDOW 3 24 8 Left 2
SYMATTR InstName C4
SYMATTR Value 22n
SYMBOL res 224 288 R0
SYMATTR InstName R20
SYMATTR Value 2.21k
SYMBOL res 256 592 R180
WINDOW 0 36 76 Left 2
WINDOW 3 36 40 Left 2
SYMATTR InstName R21
SYMATTR Value 1.82k
SYMBOL res 496 272 R90
WINDOW 0 0 56 VBottom 2
WINDOW 3 32 56 VTop 2
SYMATTR InstName R28
SYMATTR Value 6.98k
SYMBOL nmos 336 480 M0
WINDOW 0 -42 16 Left 2
WINDOW 3 -80 47 Left 2
SYMATTR InstName M3
SYMATTR Value 2N7000
SYMBOL res 576 160 R0
SYMATTR InstName Rs1
SYMATTR Value .1
SYMBOL res 848 176 R90
WINDOW 0 0 56 VBottom 2
WINDOW 3 32 56 VTop 2
SYMATTR InstName R1
SYMATTR Value 11k
SYMBOL res 848 256 R90
WINDOW 0 0 56 VBottom 2
WINDOW 3 32 56 VTop 2
SYMATTR InstName R3
SYMATTR Value 11k
SYMBOL res 944 128 R90
WINDOW 0 0 56 VBottom 2
WINDOW 3 32 56 VTop 2
SYMATTR InstName R7
SYMATTR Value 121k
SYMBOL res 864 400 R180
WINDOW 0 36 76 Left 2
WINDOW 3 36 40 Left 2
SYMATTR InstName R29
SYMATTR Value 121k
SYMBOL res 1376 288 R0
SYMATTR InstName R30
SYMATTR Value 4.02k
SYMBOL res 1328 256 R90
WINDOW 0 0 56 VBottom 2
WINDOW 3 32 56 VTop 2
SYMATTR InstName R31
SYMATTR Value 6.98k
SYMBOL res 1680 368 R90
WINDOW 0 0 56 VBottom 2
WINDOW 3 32 56 VTop 2
SYMATTR InstName R32
SYMATTR Value 100k
SYMBOL res 1664 256 R90
WINDOW 0 0 56 VBottom 2
WINDOW 3 32 56 VTop 2
SYMATTR InstName R33
SYMATTR Value 100k
SYMBOL res 1712 128 R90
WINDOW 0 0 56 VBottom 2
WINDOW 3 32 56 VTop 2
SYMATTR InstName R34
SYMATTR Value 100k
SYMBOL res 1792 128 R90
WINDOW 0 0 56 VBottom 2
WINDOW 3 32 56 VTop 2
SYMATTR InstName R35
SYMATTR Value 100k
SYMBOL res 2240 288 R90
WINDOW 0 0 56 VBottom 2
WINDOW 3 32 56 VTop 2
SYMATTR InstName R36
SYMATTR Value 1k
SYMBOL res 2240 368 R90
WINDOW 0 0 56 VBottom 2
WINDOW 3 32 56 VTop 2
SYMATTR InstName R37
SYMATTR Value 1k
SYMBOL res 2336 240 R90
WINDOW 0 0 56 VBottom 2
WINDOW 3 32 56 VTop 2
SYMATTR InstName R38
SYMATTR Value 150k
SYMBOL res 2256 512 R180
WINDOW 0 36 76 Left 2
WINDOW 3 36 40 Left 2
SYMATTR InstName R39
SYMATTR Value 150k
SYMBOL npn -304 -48 R0
SYMATTR InstName Q1
SYMATTR Value BC547C
SYMBOL npn 16 -48 M0
SYMATTR InstName Q2
SYMATTR Value BC547C
SYMBOL res -256 -416 R0
SYMATTR InstName R2
SYMATTR Value 100
SYMBOL npn -208 144 R0
SYMATTR InstName Q3
SYMATTR Value BC547C
SYMBOL npn -352 144 M0
SYMATTR InstName Q4
SYMATTR Value BC547C
SYMBOL res -432 -144 R0
SYMATTR InstName R4
SYMATTR Value 5.36k
SYMBOL res -432 288 R0
SYMATTR InstName R5
SYMATTR Value 100
SYMBOL res -160 288 R0
SYMATTR InstName R8
SYMATTR Value 100
SYMBOL res -64 -416 R0
SYMATTR InstName R10
SYMATTR Value 100
SYMBOL pnp -112 -144 M180
SYMATTR InstName Q5
SYMATTR Value BC557C
SYMBOL pnp -176 -144 R180
SYMATTR InstName Q6
SYMATTR Value BC557C
SYMBOL res -32 80 R90
WINDOW 0 0 56 VBottom 2
WINDOW 3 32 56 VTop 2
SYMATTR InstName R11
SYMATTR Value 24.9
SYMBOL res -128 80 R90
WINDOW 0 0 56 VBottom 2
WINDOW 3 32 56 VTop 2
SYMATTR InstName R12
SYMATTR Value 24.9
SYMBOL TL081 896 240 R0
SYMATTR InstName U2
SYMBOL TL081 2288 352 R0
SYMATTR InstName U3
SYMBOL TL081 1776 256 R0
SYMATTR InstName U5
SYMBOL pmos 336 -608 R180
SYMATTR InstName M2
SYMATTR Value FDC5614P
SYMBOL res 960 -272 R0
SYMATTR InstName R15
SYMATTR Value 36k
SYMBOL nmos 1104 -176 M0
WINDOW 3 -14 110 Left 2
SYMATTR Value AON6560
SYMATTR InstName M6
SYMBOL TL081 1104 -288 R0
SYMATTR InstName U4
SYMBOL res 1040 -272 R0
SYMATTR InstName R6
SYMATTR Value 250k
SYMBOL res 960 -400 R0
SYMATTR InstName R9
SYMATTR Value 64k
SYMBOL res 1584 -304 R0
SYMATTR InstName R13
SYMATTR Value 10k
SYMBOL nmos 1728 -176 M0
WINDOW 3 -14 110 Left 2
SYMATTR Value AON6560
SYMATTR InstName M4
SYMBOL TL081 1728 -288 R0
SYMATTR InstName U6
SYMBOL res 1584 -400 R0
SYMATTR InstName R16
SYMATTR Value 10k
SYMBOL res 1584 -192 R0
SYMATTR InstName R17
SYMATTR Value 1k
TEXT -800 -168 Left 2 !.param RLOAD 100
TEXT -1072 784 Left 2 !.model BC558B PNP(Is=1.02f Xti=3 Eg=1.11 Vaf=52.31 Bf=306.5 Ise=10.27f Ne=1.764 Ikf=91.85m Nk=.5351 Xtb=1.5 Br=6.48 Isc=1.472f Nc=1.294 Ikr=.5584 Rc=1.086 Cjc=9.81p Mjc=.332 Vjc=.4865 Fc=.5 Cje=30p Mje=.3333 Vje=.5 Tr=10n Tf=611.6p Itf=1.373 Xtf=26.05 Vtf=10 Vceo=30 Icrating=100m mfg=Philips)
TEXT -1072 808 Left 2 !.model BC548B NPN(Is=7.049f Xti=3 Eg=1.11 Vaf=62.79 Bf=374.6 Ise=68f Ne=1.576 Ikf=81.57m Nk=.4767 Xtb=1.5 Br=1 Isc=12.4f Nc=1.835 Ikr=3.924 Rc=.9747 Cjc=5.25p Mjc=.3147 Vjc=.5697 Fc=.5 Cje=11.5p Mje=.6715 Vje=.5 Tr=10n Tf=410.2p Itf=1.491 Xtf=40.06 Vtf=10 Vceo=30 Icrating=100m mfg=Philips)
TEXT -800 -40 Left 2 !.inc sihf9520.lib
TEXT -1072 832 Left 2 !.model 2N7000 VDMOS(Rg=3 Vto=3 Rd=0 Rs=.75 Rb=.14 Kp=.17 mtriode=1.25 Cgdmax=80p Cgdmin=12p Cgs=50p Cjo=50p Is=.04p mfg=Fairchild Vds=60 Ron=5 Qg=.223n)
TEXT -800 -136 Left 2 !.param CLOAD 15u
TEXT -792 -464 Left 2 ;Referencias
TEXT -496 -464 Left 2 ;Amplificador de error
TEXT 168 -848 Left 2 ;Enable
TEXT 584 -824 Left 2 ;Actuador
TEXT 424 -240 Left 2 ;Transistor
TEXT 424 -216 Left 2 ;de paso
TEXT 168 256 Left 2 ;Realimentador
TEXT 600 112 Left 2 ;Sensado de corriente
TEXT 1120 112 Left 2 ;Sumador
TEXT 2080 112 Left 2 ;Amplificador
TEXT 2080 136 Left 2 ;de error
TEXT -1072 760 Left 2 ;Modelos
TEXT -792 -200 Left 2 ;Parámetros
TEXT -792 -64 Left 2 ;Librerías
TEXT 1408 592 Left 2 ;Foldback
TEXT 584 -800 Left 2 ;Foldback
TEXT 848 -424 Left 2 ;UVLO
TEXT 1472 -424 Left 2 ;OVLO
LINE Normal -576 -480 -800 -480 2
LINE Normal -576 -272 -576 -448 2
LINE Normal -800 -272 -576 -272 2
LINE Normal -800 -448 -800 -272 2
LINE Normal 128 -480 -512 -480 3
LINE Normal 128 448 128 -480 3
LINE Normal -512 448 128 448 3
LINE Normal -512 -480 -512 448 3
LINE Normal 160 -864 160 -480 1
LINE Normal 544 -864 160 -864 1
LINE Normal 544 -480 544 -864 1
LINE Normal 160 -480 544 -480 1
LINE Normal 896 -848 576 -848 1
LINE Normal 896 -496 896 -848 1
LINE Normal 576 -496 896 -496 1
LINE Normal 576 -848 576 -496 1
LINE Normal -800 -480 -800 -448 2
LINE Normal -576 -448 -576 -480 2
LINE Normal 608 64 416 64 1
LINE Normal 608 -256 608 64 1
LINE Normal 416 -256 608 -256 1
LINE Normal 416 64 416 -256 1
LINE Normal 160 240 496 240 1
LINE Normal 160 736 160 240 1
LINE Normal 496 736 160 736 1
LINE Normal 496 240 496 736 1
LINE Normal 560 96 896 96 1
LINE Normal 560 480 560 96 1
LINE Normal 1056 480 560 480 1
LINE Normal 1056 96 1056 480 1
LINE Normal 896 96 1056 96 1
LINE Normal 1104 96 1104 272 1
LINE Normal 2032 96 1104 96 1
LINE Normal 2032 496 2032 96 1
LINE Normal 1104 496 2032 496 1
LINE Normal 1104 272 1104 496 1
LINE Normal 2064 96 2064 304 3
LINE Normal 2432 96 2064 96 3
LINE Normal 2432 592 2432 96 3
LINE Normal 2064 592 2432 592 3
LINE Normal 2064 304 2064 592 3
LINE Normal 544 608 544 80 4
LINE Normal 2464 608 544 608 4
LINE Normal 2464 80 2464 608 4
LINE Normal 544 80 2464 80 4
LINE Normal 832 32 832 -448 1
LINE Normal 1440 32 832 32 1
LINE Normal 1440 -448 1440 32 1
LINE Normal 832 -448 1440 -448 1
LINE Normal 1456 32 1456 -448 1
LINE Normal 2064 32 1456 32 1
LINE Normal 2064 -448 2064 32 1
LINE Normal 1456 -448 2064 -448 1
