Version 4
SHEET 1 880 812
WIRE -1712 -96 -1808 -96
WIRE -1584 -96 -1648 -96
WIRE -1552 -96 -1584 -96
WIRE -1408 -64 -1776 -64
WIRE -1360 -64 -1360 -80
WIRE -1808 -32 -1808 -96
WIRE -1360 16 -1440 16
WIRE -1808 32 -1808 -32
WIRE -1152 32 -1184 32
WIRE -1024 32 -1072 32
WIRE -912 32 -1024 32
WIRE -816 32 -912 32
WIRE -1776 48 -1776 -64
WIRE -1728 48 -1776 48
WIRE -1440 48 -1440 16
WIRE -1440 48 -1504 48
WIRE -912 48 -912 32
WIRE -2160 96 -2160 -16
WIRE -2144 96 -2160 96
WIRE -2032 96 -2032 -16
WIRE -2032 96 -2064 96
WIRE -1808 112 -1808 96
WIRE -1728 112 -1808 112
WIRE -1408 112 -1408 -64
WIRE -1408 112 -1504 112
WIRE -1360 112 -1360 96
WIRE -1360 112 -1408 112
WIRE -1024 112 -1024 32
WIRE -912 144 -912 128
WIRE -912 144 -992 144
WIRE -912 176 -912 144
WIRE -1408 192 -1408 112
WIRE -1024 256 -1024 176
WIRE -912 256 -1024 256
WIRE -1408 272 -1408 256
WIRE -1024 272 -1024 256
FLAG -928 -128 0
FLAG -848 -128 E
FLAG -1216 -112 0
FLAG -1024 272 0
FLAG -816 32 Vposa
FLAG -1136 -112 Vref
FLAG -1728 -16 0
FLAG -1440 176 0
FLAG -1584 -160 0
FLAG -1872 -32 0
FLAG -1408 272 0
FLAG -1552 -96 V-
FLAG -1184 32 Vin
FLAG -2032 -16 0
FLAG -2160 -16 Vin
FLAG -2176 -160 0
FLAG -2096 -160 Vreg
FLAG -1360 -80 Vreg
FLAG -1504 -16 Vreg
FLAG -1728 176 Vreg
SYMBOL voltage -832 -128 R90
WINDOW 123 0 0 Left 0
WINDOW 39 0 0 Left 0
WINDOW 0 41 73 VRight 2
WINDOW 3 45 22 VRight 2
SYMATTR InstName V2
SYMATTR Value 5
SYMBOL voltage -1120 -112 R90
WINDOW 123 0 0 Left 0
WINDOW 39 0 0 Left 0
WINDOW 3 44 96 VLeft 2
WINDOW 0 -45 30 VRight 2
SYMATTR Value 1.2
SYMATTR InstName Vref1
SYMBOL res -1056 16 R90
WINDOW 0 0 56 VBottom 2
WINDOW 3 32 56 VTop 2
SYMATTR InstName R2
SYMATTR Value 3.6k
SYMBOL References\\LT1009 -1024 144 R0
SYMATTR InstName U1
SYMBOL res -928 32 R0
SYMATTR InstName R3
SYMATTR Value 5k
SYMBOL res -928 160 R0
SYMATTR InstName R4
SYMATTR Value 5k
SYMBOL Misc\\NE555 -1616 80 R0
SYMATTR InstName U2
SYMBOL res -1344 112 R180
WINDOW 0 -38 76 Left 2
WINDOW 3 -40 21 Left 2
SYMATTR InstName R5
SYMATTR Value 10k
SYMBOL res -1376 -80 R0
SYMATTR InstName R6
SYMATTR Value 1k
SYMBOL cap -1824 32 R0
WINDOW 0 -16 8 Left 2
WINDOW 3 -34 54 Left 2
SYMATTR InstName C1
SYMATTR Value 22µ
SYMBOL diode -1648 -112 R90
WINDOW 0 -24 66 VBottom 2
WINDOW 3 -26 48 VTop 2
SYMATTR InstName D1
SYMATTR Value 1N4007
SYMBOL cap -1568 -160 M0
WINDOW 3 24 47 Left 2
SYMATTR InstName C2
SYMATTR Value 33µ
SYMBOL diode -1808 -16 M270
WINDOW 0 32 32 VTop 2
WINDOW 3 0 49 VBottom 2
SYMATTR InstName D2
SYMATTR Value 1N4007
SYMBOL cap -1424 192 R0
SYMATTR InstName C3
SYMATTR Value 0.022µ
SYMBOL cap -1440 160 R90
WINDOW 0 0 32 VBottom 2
WINDOW 3 32 32 VTop 2
SYMATTR InstName C4
SYMATTR Value 0.01µ
SYMBOL voltage -2160 96 R270
WINDOW 0 32 56 VTop 2
WINDOW 3 -32 56 VBottom 2
SYMATTR InstName Bat
SYMATTR Value 36v
SYMBOL voltage -2080 -160 R90
WINDOW 0 -32 56 VBottom 2
WINDOW 3 32 56 VTop 2
WINDOW 123 0 0 Left 0
WINDOW 39 0 0 Left 0
SYMATTR InstName Buck
SYMATTR Value 6.35
TEXT -840 -112 Left 2 ;Enable
TEXT -872 48 Left 2 ;Ref2
TEXT -1928 336 Left 2 !.MODEL 1N4007 D  ( IS=76.9p RS=42.0m BV=1.00k IBV=5.00u\n+ CJO=26.5p  M=0.333 N=1.45 TT=4.32u )
TEXT -1904 -192 Left 2 ;V- = -5V
TEXT -904 -8 Left 2 ;Ref2 = 2.5V
TEXT -968 -176 Left 2 ;Enable = 0V vs 5V
TEXT -1224 -176 Left 2 ;Ref1 = 1.2V
TEXT -1930 384 Left 2 !.tran 100m
TEXT -2080 352 Left 2 ;Bateria
TEXT -2064 -208 Left 2 ;Externo
RECTANGLE Normal -1280 304 -1920 -208 2
RECTANGLE Normal -720 304 -1248 -32 2
RECTANGLE Normal -1984 368 -2208 32
RECTANGLE Normal -2128 32 -2192 0
RECTANGLE Normal -2000 32 -2064 16
RECTANGLE Normal -1968 384 -2224 -224 3
RECTANGLE Normal -1056 -48 -1248 -208 2
RECTANGLE Normal -736 -64 -992 -208 2
