Version 4
SHEET 1 880 680
WIRE 528 -160 352 -160
WIRE 720 -160 528 -160
WIRE 352 -112 352 -160
WIRE 528 -96 528 -160
WIRE 352 0 352 -32
WIRE 528 0 528 -32
WIRE 528 0 352 0
WIRE 352 64 352 0
WIRE 720 80 720 -160
WIRE 352 96 352 64
WIRE 0 176 -160 176
WIRE 160 176 0 176
WIRE 256 176 240 176
WIRE 304 176 256 176
WIRE -160 224 -160 176
WIRE 0 224 0 176
WIRE 144 240 48 240
WIRE 144 256 144 240
WIRE 64 288 48 288
WIRE -160 368 -160 304
WIRE 0 368 0 304
WIRE 0 368 -160 368
WIRE 64 368 64 288
WIRE 64 368 0 368
WIRE 144 368 144 336
WIRE 144 368 64 368
WIRE 352 368 352 192
WIRE 352 368 144 368
WIRE 720 368 720 160
WIRE 720 368 352 368
WIRE 352 400 352 368
FLAG 352 400 0
FLAG 256 176 gate
FLAG 352 64 drain
SYMBOL current -160 304 R180
WINDOW 0 24 80 Left 2
WINDOW 3 24 0 Left 2
WINDOW 123 0 0 Left 0
WINDOW 39 0 0 Left 0
SYMATTR InstName IDRV
SYMATTR Value 200m
SYMBOL sw 0 320 R180
SYMATTR InstName S1
SYMBOL voltage 144 240 R0
WINDOW 123 0 0 Left 0
WINDOW 39 0 0 Left 0
SYMATTR InstName V1
SYMATTR Value PULSE(0 2 0 1n 1n 750n 1000n)
SYMBOL current 352 -112 R0
WINDOW 123 0 0 Left 0
WINDOW 39 0 0 Left 0
SYMATTR InstName ILOAD
SYMATTR Value 1
SYMBOL voltage 720 64 R0
WINDOW 123 0 0 Left 0
WINDOW 39 0 0 Left 0
SYMATTR InstName VBRIDGE
SYMATTR Value 12
SYMBOL schottky 544 -32 R180
WINDOW 0 24 64 Left 2
WINDOW 3 24 0 Left 2
SYMATTR InstName D1
SYMATTR Value 1N5817
SYMATTR Description Diode
SYMATTR Type diode
SYMBOL res 256 160 R90
WINDOW 0 0 56 VBottom 2
WINDOW 3 32 56 VTop 2
SYMATTR InstName R1
SYMATTR Value 1µ
SYMBOL irf520 304 96 R0
SYMATTR InstName U1
TEXT -168 432 Left 2 !.model SW SW(Ron=0.001 Roff=100Meg Vt=0.5 Vh=0.25)
TEXT -256 456 Left 2 !.tran 0 35u 30u 100p startup
