Version 4
SHEET 1 4676 680
WIRE 464 -1424 256 -1424
WIRE 624 -1424 592 -1424
WIRE 464 -1376 336 -1376
WIRE 928 -1376 592 -1376
WIRE 528 -1344 528 -1360
WIRE -192 -1248 -224 -1248
WIRE 528 -1232 528 -1264
WIRE -224 -1184 -224 -1248
WIRE 928 -1184 928 -1376
WIRE 928 -1184 752 -1184
WIRE -224 -1168 -224 -1184
WIRE -224 -1072 -224 -1088
WIRE 256 -992 256 -1424
WIRE 256 -992 112 -992
WIRE 336 -992 336 -1376
WIRE 624 -992 624 -1424
WIRE 624 -992 336 -992
WIRE 640 -992 624 -992
WIRE 864 -992 640 -992
WIRE 976 -992 944 -992
WIRE 1040 -992 976 -992
WIRE 1184 -992 1184 -1024
WIRE 1184 -992 1040 -992
WIRE 640 -944 640 -992
WIRE 1040 -896 1040 -992
WIRE 1184 -896 1184 -992
WIRE 112 -864 112 -912
WIRE 752 -848 752 -1184
WIRE 752 -848 640 -848
WIRE 112 -704 112 -784
WIRE 640 -704 640 -848
WIRE 640 -704 112 -704
WIRE 880 -704 640 -704
WIRE 976 -704 976 -928
WIRE 976 -704 880 -704
WIRE 1040 -704 1040 -832
WIRE 1040 -704 976 -704
WIRE 1184 -704 1184 -816
WIRE 1184 -704 1040 -704
WIRE 2832 -672 2672 -672
WIRE 2832 -640 2832 -672
WIRE 1344 -624 1248 -624
WIRE 1440 -624 1424 -624
WIRE 1680 -624 1648 -624
WIRE 1792 -624 1760 -624
WIRE 1888 -624 1856 -624
WIRE 2080 -592 2016 -592
WIRE 2224 -592 2160 -592
WIRE 1360 -576 1360 -592
WIRE 2672 -576 2672 -592
WIRE 1792 -560 1792 -576
WIRE 1360 -544 1360 -576
WIRE 1440 -528 1440 -624
WIRE 1440 -528 1392 -528
WIRE 1792 -528 1792 -560
WIRE 1248 -512 1248 -624
WIRE 1328 -512 1248 -512
WIRE 1888 -512 1888 -624
WIRE 1888 -512 1824 -512
WIRE 2016 -512 2016 -592
WIRE 2016 -512 1888 -512
WIRE 2032 -512 2016 -512
WIRE 2112 -512 2096 -512
WIRE 2224 -512 2224 -592
WIRE 2224 -512 2192 -512
WIRE 2672 -512 2224 -512
WIRE 2832 -512 2832 -560
WIRE 2832 -512 2672 -512
WIRE 1648 -496 1648 -624
WIRE 1648 -496 1392 -496
WIRE 1664 -496 1648 -496
WIRE 1760 -496 1664 -496
WIRE 2832 -496 2832 -512
WIRE 1888 -480 1824 -480
WIRE 1888 -432 1888 -480
WIRE 1360 -400 1360 -480
WIRE 1584 -400 1584 -416
WIRE 1584 -384 1584 -400
WIRE 1792 -384 1792 -464
WIRE 1888 -320 1888 -352
WIRE 1584 -272 1584 -304
WIRE 1584 -240 1584 -272
WIRE 1584 -128 1584 -160
FLAG 880 -704 0
FLAG 1184 -1024 VO
FLAG 1888 -320 0
FLAG 1792 -560 VPOS
FLAG 2832 -416 0
FLAG 1584 -272 0
FLAG 1584 -400 VPOS
FLAG 2832 -672 VO
FLAG 1664 -496 Verr
FLAG -192 -1248 ctrl
IOPIN -192 -1248 Out
FLAG -224 -1184 x
FLAG -224 -1072 y
FLAG 1248 -512 y
FLAG 1584 -128 VPOS-
FLAG 1792 -384 VPOS-
FLAG 528 -1232 0
FLAG 1360 -576 VPOS
FLAG 1360 -400 VPOS-
FLAG 1440 -704 0
SYMBOL voltage 112 -1008 R0
WINDOW 123 0 0 Left 0
WINDOW 39 0 0 Left 0
SYMATTR InstName V10
SYMATTR Value 36
SYMBOL ind 848 -976 R270
WINDOW 0 32 56 VTop 2
WINDOW 3 5 56 VBottom 2
SYMATTR InstName L4
SYMATTR Value {L}
SYMATTR SpiceLine Rser=0.05
SYMBOL cap 1024 -896 R0
SYMATTR InstName C6
SYMATTR Value {CLOAD}
SYMATTR SpiceLine Rser=100m
SYMBOL res 1168 -912 R0
SYMATTR InstName R10
SYMATTR Value {RLOAD}
SYMBOL cap 2096 -528 R90
WINDOW 0 0 32 VBottom 2
WINDOW 3 32 32 VTop 2
SYMATTR InstName C2
SYMATTR Value 1n
SYMBOL cap 1856 -640 R90
WINDOW 0 0 32 VBottom 2
WINDOW 3 32 32 VTop 2
SYMATTR InstName C5
SYMATTR Value 1n
SYMBOL res 1776 -640 R90
WINDOW 0 0 56 VBottom 2
WINDOW 3 32 56 VTop 2
SYMATTR InstName R7
SYMATTR Value 100k
SYMBOL res 2208 -528 R90
WINDOW 0 0 56 VBottom 2
WINDOW 3 32 56 VTop 2
SYMATTR InstName R8
SYMATTR Value 10k
SYMBOL res 2176 -608 R90
WINDOW 0 0 56 VBottom 2
WINDOW 3 32 56 VTop 2
SYMATTR InstName R9
SYMATTR Value 100k
SYMBOL res 2848 -400 R180
WINDOW 0 36 76 Left 2
WINDOW 3 36 40 Left 2
SYMATTR InstName R13
SYMATTR Value 10k
SYMBOL res 2848 -544 R180
WINDOW 0 36 76 Left 2
WINDOW 3 36 40 Left 2
SYMATTR InstName R14
SYMATTR Value 42.9k
SYMBOL voltage 1584 -400 R0
WINDOW 123 24 44 Left 2
WINDOW 39 0 0 Left 0
SYMATTR Value2 AC 1
SYMATTR InstName Vg1
SYMATTR Value 7
SYMBOL voltage 1888 -448 R0
WINDOW 123 0 0 Left 0
WINDOW 39 0 0 Left 0
SYMATTR InstName V2
SYMATTR Value 1.2
SYMBOL ccm2 528 -1392 R0
SYMATTR SpiceLine Ron=0.23
SYMATTR SpiceLine2 VD=0 RD=0.23
SYMATTR InstName U1
SYMBOL voltage -224 -1184 R0
WINDOW 0 41 45 Left 2
WINDOW 123 37 65 Left 2
WINDOW 39 0 0 Left 2
SYMATTR InstName Vz1
SYMATTR Value2 AC 1
SYMATTR Value ""
SYMBOL TL081 1792 -496 M0
SYMATTR InstName U2
SYMBOL voltage 1584 -256 R0
WINDOW 123 24 44 Left 2
WINDOW 39 0 0 Left 0
SYMATTR Value2 AC 1
SYMATTR InstName Vg2
SYMATTR Value 5
SYMBOL cap 2656 -576 R0
SYMATTR InstName C1
SYMATTR Value 100p
SYMBOL res 2656 -688 R0
SYMATTR InstName R1
SYMATTR Value 100
SYMBOL cap 960 -992 R0
SYMATTR InstName C3
SYMATTR Value 1n
SYMATTR SpiceLine Rser=5m
SYMBOL bv 528 -1360 R0
SYMATTR InstName B2
SYMATTR Value V=delay(v(ctrl)/5.75, 190ns)
SYMBOL voltage 112 -880 R0
WINDOW 123 0 0 Left 0
WINDOW 39 0 0 Left 0
SYMATTR InstName V1
SYMATTR Value PULSE(0 -24 1m 10u 10u 1m)
SYMBOL TL081 1360 -512 M0
SYMATTR InstName U3
SYMBOL res 1424 -720 R0
SYMATTR InstName R2
SYMATTR Value 1k
SYMBOL res 1440 -640 R90
WINDOW 0 0 56 VBottom 2
WINDOW 3 32 56 VTop 2
SYMATTR InstName R3
SYMATTR Value 5k
TEXT 128 -544 Left 2 !;tran 0 3m 0 startup
TEXT -832 -816 Left 2 !.param CLOAD 100u
TEXT -848 -776 Left 2 !.step param RLOAD list 3.7 61
TEXT -848 -704 Left 2 !.param L 65.3u
TEXT -192 -536 Left 2 !.include irf520.txt
TEXT -160 -392 Left 2 !.include IR2110.txt
TEXT -152 -232 Left 2 !.MODEL 1N4007 D  ( IS=76.9p RS=42.0m BV=1.00k IBV=5.00u\n+ CJO=26.5p  M=0.333 N=1.45 TT=4.32u )
TEXT 640 -464 Left 2 !.options gmin=1e-10\n.options abstol=1e-10\n.options reltol=0.003\n.options cshunt=1e-15
TEXT 1528 -672 Left 2 ;Error amp
TEXT 2632 -672 Left 2 ;f
TEXT 152 -448 Left 2 !.include average.lib
TEXT 136 -504 Left 2 !.ac dec 100 .1 100meg
RECTANGLE Normal 2464 -16 1216 -736 2
RECTANGLE Normal 2992 -320 2592 -688 2
